* NGSPICE file created from tmux_7therm_to_3bin_extracted.ext - technology: sky130A

.subckt sky130_fd_pr__pfet_01v8_A6MZLZ B D S G VSUBS
X0 S G D B sky130_fd_pr__pfet_01v8 ad=0.58 pd=4.58 as=0.58 ps=4.58 w=2 l=0.15
C0 S B 0.14266f
C1 D G 0.02934f
C2 S D 0.32105f
C3 D B 0.14266f
C4 S G 0.02934f
C5 B G 0.24043f
C6 S VSUBS 0.09023f
C7 D VSUBS 0.09023f
C8 G VSUBS 0.11914f
C9 B VSUBS 1.5811f
.ends

.subckt sky130_fd_pr__nfet_01v8_MH3LLV B D S G
X0 S G D B sky130_fd_pr__nfet_01v8 ad=0.29 pd=2.58 as=0.29 ps=2.58 w=1 l=0.15
C0 S D 0.16211f
C1 S G 0.02545f
C2 G D 0.02545f
C3 S B 0.1317f
C4 D B 0.1317f
C5 G B 0.34289f
.ends

.subckt tmux_2to1 Y vdd XM5/G B A S vss
XXM1 vdd vdd XM5/G S vss sky130_fd_pr__pfet_01v8_A6MZLZ
XXM2 vss vss XM5/G S sky130_fd_pr__nfet_01v8_MH3LLV
XXM3 vdd A Y S vss sky130_fd_pr__pfet_01v8_A6MZLZ
XXM4 vss A Y XM5/G sky130_fd_pr__nfet_01v8_MH3LLV
XXM5 vdd Y B XM5/G vss sky130_fd_pr__pfet_01v8_A6MZLZ
XXM6 vss Y B S sky130_fd_pr__nfet_01v8_MH3LLV
C0 vdd Y 0.18933f
C1 vdd XM5/G 0.17343f
C2 vdd A 0.05809f
C3 B Y 0.03022f
C4 S Y 0.13093f
C5 B XM5/G 0.09611f
C6 S XM5/G 0.4752f
C7 S A 0.09932f
C8 XM5/G Y 0.31571f
C9 A Y 0.03022f
C10 XM5/G A 0.66126f
C11 B vdd 0.11322f
C12 vdd S 0.27839f
C13 B S 0.0426f
C14 B vss 0.39578f
C15 S vss 1.22376f
C16 Y vss 0.38976f
C17 XM5/G vss 0.68597f
C18 vdd vss 4.09633f
C19 A vss 0.18036f
.ends

.subckt sky130_fd_pr__res_generic_m1_SPQYYJ R1 R2 m1_n100_n100# VSUBS
R0 R1 R2 sky130_fd_pr__res_generic_m1 w=1 l=1
C0 R2 VSUBS 0.07104f
C1 R1 VSUBS 0.07104f
C2 m1_n100_n100# VSUBS 0.10692f
.ends

.subckt inv vin vdd vout vss
XXMn vss vss vout vin sky130_fd_pr__nfet_01v8_MH3LLV
XXMp vdd vdd vout vin vss sky130_fd_pr__pfet_01v8_A6MZLZ
C0 vdd vin 0.13776f
C1 vdd vout 0.11998f
C2 vout vin 0.12658f
C3 vin vss 0.56678f
C4 vout vss 0.40687f
C5 vdd vss 1.84972f
.ends

.subckt buffer in out vdd inv_1/vin vss
Xinv_0 in vdd inv_1/vin vss inv
Xinv_1 inv_1/vin vdd out vss inv
C0 vdd in 0.01965f
C1 out inv_1/vin 0.0071f
C2 vdd inv_1/vin 0.16476f
C3 in inv_1/vin 0.01628f
C4 vdd out 0.00589f
C5 inv_1/vin vss 0.60193f
C6 out vss 0.3255f
C7 in vss 0.41789f
C8 vdd vss 3.06334f
.ends

.subckt tmux_7therm_to_3bin_extracted d0 d1 d2 d3 d4 d5 d6 q0 q1 q2 vdd vss
Xtmux_2to1_1 buffer_8/in vdd tmux_2to1_1/XM5/G buffer_5/out buffer_1/out R1/R1 vss
+ tmux_2to1
Xtmux_2to1_2 tmux_2to1_3/B vdd tmux_2to1_2/XM5/G buffer_6/out buffer_2/out R1/R1 vss
+ tmux_2to1
Xtmux_2to1_3 buffer_7/in vdd tmux_2to1_3/XM5/G tmux_2to1_3/B tmux_2to1_3/A buffer_8/in
+ vss tmux_2to1
XR1 R1/R1 R1/R2 R1/m1_n100_n100# vss sky130_fd_pr__res_generic_m1_SPQYYJ
Xbuffer_0 d0 buffer_0/out vdd buffer_0/inv_1/vin vss buffer
Xbuffer_1 d1 buffer_1/out vdd buffer_1/inv_1/vin vss buffer
Xbuffer_2 d2 buffer_2/out vdd buffer_2/inv_1/vin vss buffer
Xbuffer_3 d3 R1/R2 vdd buffer_3/inv_1/vin vss buffer
Xbuffer_4 d4 buffer_4/out vdd buffer_4/inv_1/vin vss buffer
Xbuffer_5 d5 buffer_5/out vdd buffer_5/inv_1/vin vss buffer
Xbuffer_6 d6 buffer_6/out vdd buffer_6/inv_1/vin vss buffer
Xbuffer_7 buffer_7/in q0 vdd buffer_7/inv_1/vin vss buffer
Xbuffer_8 buffer_8/in q1 vdd buffer_8/inv_1/vin vss buffer
Xbuffer_9 R1/R1 q2 vdd buffer_9/inv_1/vin vss buffer
Xtmux_2to1_0 tmux_2to1_3/A vdd tmux_2to1_0/XM5/G buffer_4/out buffer_0/out R1/R1 vss
+ tmux_2to1
X0 buffer_4/inv_1/vin d4.t1 vdd vdd sky130_fd_pr__pfet_01v8 ad=0.58 pd=4.58 as=0.58 ps=4.58 w=0 l=0
X1 buffer_1/inv_1/vin d1.t0 vss vss sky130_fd_pr__nfet_01v8 ad=0.29 pd=2.58 as=0.29 ps=2.58 w=0 l=0
X2 buffer_1/inv_1/vin d1.t1 vdd vdd sky130_fd_pr__pfet_01v8 ad=0.58 pd=4.58 as=0.58 ps=4.58 w=0 l=0
X3 buffer_5/inv_1/vin d5.t0 vss vss sky130_fd_pr__nfet_01v8 ad=0.29 pd=2.58 as=0.29 ps=2.58 w=0 l=0
X4 buffer_3/inv_1/vin d3.t0 vss vss sky130_fd_pr__nfet_01v8 ad=0.29 pd=2.58 as=0.29 ps=2.58 w=0 l=0
X5 buffer_5/inv_1/vin d5.t1 vdd vdd sky130_fd_pr__pfet_01v8 ad=0.58 pd=4.58 as=0.58 ps=4.58 w=0 l=0
X6 buffer_0/inv_1/vin d0.t1 vdd vdd sky130_fd_pr__pfet_01v8 ad=0.58 pd=4.58 as=0.58 ps=4.58 w=0 l=0
X7 buffer_3/inv_1/vin d3.t1 vdd vdd sky130_fd_pr__pfet_01v8 ad=0.58 pd=4.58 as=0.58 ps=4.58 w=0 l=0
X8 buffer_4/inv_1/vin d4.t0 vss vss sky130_fd_pr__nfet_01v8 ad=0.29 pd=2.58 as=0.29 ps=2.58 w=0 l=0
X9 buffer_2/inv_1/vin d2.t0 vss vss sky130_fd_pr__nfet_01v8 ad=0.29 pd=2.58 as=0.29 ps=2.58 w=0 l=0
X10 buffer_0/inv_1/vin d0.t0 vss vss sky130_fd_pr__nfet_01v8 ad=0.29 pd=2.58 as=0.29 ps=2.58 w=0 l=0
X11 buffer_6/inv_1/vin d6.t1 vdd vdd sky130_fd_pr__pfet_01v8 ad=0.58 pd=4.58 as=0.58 ps=4.58 w=0 l=0
X12 buffer_2/inv_1/vin d2.t1 vdd vdd sky130_fd_pr__pfet_01v8 ad=0.58 pd=4.58 as=0.58 ps=4.58 w=0 l=0
X13 buffer_6/inv_1/vin d6.t0 vss vss sky130_fd_pr__nfet_01v8 ad=0.29 pd=2.58 as=0.29 ps=2.58 w=0 l=0
R0 vdd.n71 vdd.n59 1789.41
R1 vdd.n68 vdd.n59 1789.41
R2 vdd.n71 vdd.n60 1789.41
R3 vdd.n77 vdd.n54 1789.41
R4 vdd.n74 vdd.n54 1789.41
R5 vdd.n77 vdd.n55 1789.41
R6 vdd.n74 vdd.n55 1789.41
R7 vdd.n41 vdd.n12 1789.41
R8 vdd.n41 vdd.n13 1789.41
R9 vdd.n81 vdd.n5 1789.41
R10 vdd.n52 vdd.n5 1789.41
R11 vdd.n34 vdd.n15 1789.41
R12 vdd.n37 vdd.n15 1789.41
R13 vdd.n34 vdd.n16 1789.41
R14 vdd.n37 vdd.n16 1789.41
R15 vdd.n31 vdd.n20 1789.41
R16 vdd.n28 vdd.n21 1789.41
R17 vdd.n31 vdd.n21 1789.41
R18 vdd.n124 vdd.n98 1789.41
R19 vdd.n98 vdd.n94 1789.41
R20 vdd.n124 vdd.n99 1789.41
R21 vdd.n99 vdd.n94 1789.41
R22 vdd.n97 vdd.n91 1789.41
R23 vdd.n126 vdd.n91 1789.41
R24 vdd.n97 vdd.n92 1789.41
R25 vdd.n126 vdd.n92 1789.41
R26 vdd.n107 vdd.n102 1789.41
R27 vdd.n116 vdd.n102 1789.41
R28 vdd.n107 vdd.n103 1789.41
R29 vdd.n116 vdd.n103 1789.41
R30 vdd.n109 vdd.n105 1789.41
R31 vdd.n114 vdd.n109 1789.41
R32 vdd.n110 vdd.n105 1789.41
R33 vdd.n114 vdd.n110 1789.41
R34 vdd.n208 vdd.n193 1789.41
R35 vdd.n215 vdd.n193 1789.41
R36 vdd.n208 vdd.n194 1789.41
R37 vdd.n215 vdd.n194 1789.41
R38 vdd.n224 vdd.n186 1789.41
R39 vdd.n205 vdd.n186 1789.41
R40 vdd.n224 vdd.n187 1789.41
R41 vdd.n205 vdd.n187 1789.41
R42 vdd.n336 vdd.n329 1789.41
R43 vdd.n329 vdd.n327 1789.41
R44 vdd.n348 vdd.n181 1789.41
R45 vdd.n350 vdd.n181 1789.41
R46 vdd.n310 vdd.n291 1789.41
R47 vdd.n310 vdd.n292 1789.41
R48 vdd.n324 vdd.n250 1789.41
R49 vdd.n324 vdd.n251 1789.41
R50 vdd.n284 vdd.n256 1789.41
R51 vdd.n313 vdd.n256 1789.41
R52 vdd.n284 vdd.n257 1789.41
R53 vdd.n313 vdd.n257 1789.41
R54 vdd.n276 vdd.n268 1789.41
R55 vdd.n268 vdd.n263 1789.41
R56 vdd.n276 vdd.n269 1789.41
R57 vdd.n269 vdd.n263 1789.41
R58 vdd.n210 vdd.n196 1789.41
R59 vdd.n213 vdd.n196 1789.41
R60 vdd.n210 vdd.n197 1789.41
R61 vdd.n213 vdd.n197 1789.41
R62 vdd.n199 vdd.n184 1789.41
R63 vdd.n204 vdd.n199 1789.41
R64 vdd.n200 vdd.n184 1789.41
R65 vdd.n204 vdd.n200 1789.41
R66 vdd.n328 vdd.n247 1789.41
R67 vdd.n338 vdd.n247 1789.41
R68 vdd.n243 vdd.n227 1789.41
R69 vdd.n243 vdd.n183 1789.41
R70 vdd.n286 vdd.n259 1789.41
R71 vdd.n289 vdd.n259 1789.41
R72 vdd.n286 vdd.n260 1789.41
R73 vdd.n289 vdd.n260 1789.41
R74 vdd.n278 vdd.n264 1789.41
R75 vdd.n281 vdd.n264 1789.41
R76 vdd.n278 vdd.n265 1789.41
R77 vdd.n281 vdd.n265 1789.41
R78 vdd.n167 vdd.n141 1789.41
R79 vdd.n141 vdd.n137 1789.41
R80 vdd.n167 vdd.n142 1789.41
R81 vdd.n142 vdd.n137 1789.41
R82 vdd.n140 vdd.n134 1789.41
R83 vdd.n169 vdd.n134 1789.41
R84 vdd.n140 vdd.n135 1789.41
R85 vdd.n169 vdd.n135 1789.41
R86 vdd.n150 vdd.n145 1789.41
R87 vdd.n159 vdd.n145 1789.41
R88 vdd.n150 vdd.n146 1789.41
R89 vdd.n159 vdd.n146 1789.41
R90 vdd.n152 vdd.n148 1789.41
R91 vdd.n157 vdd.n152 1789.41
R92 vdd.n153 vdd.n148 1789.41
R93 vdd.n157 vdd.n153 1789.41
R94 vdd.n40 vdd.n38 1315.04
R95 vdd.n7 vdd.n4 1231.76
R96 vdd.n8 vdd.n7 1231.76
R97 vdd.n47 vdd.n46 1231.76
R98 vdd.n46 vdd.n10 1231.76
R99 vdd.n229 vdd.n228 1231.76
R100 vdd.n228 vdd.n180 1231.76
R101 vdd.n331 vdd.n231 1231.76
R102 vdd.n331 vdd.n330 1231.76
R103 vdd.n300 vdd.n299 1231.76
R104 vdd.n299 vdd.n298 1231.76
R105 vdd.n305 vdd.n294 1231.76
R106 vdd.n305 vdd.n295 1231.76
R107 vdd.n239 vdd.n236 1231.76
R108 vdd.n239 vdd.n238 1231.76
R109 vdd.n340 vdd.n235 1231.76
R110 vdd.n340 vdd.n339 1231.76
R111 vdd.n47 vdd.n12 557.648
R112 vdd.n48 vdd.n47 557.648
R113 vdd.n48 vdd.n4 557.648
R114 vdd.n81 vdd.n4 557.648
R115 vdd.n13 vdd.n10 557.648
R116 vdd.n50 vdd.n10 557.648
R117 vdd.n50 vdd.n8 557.648
R118 vdd.n52 vdd.n8 557.648
R119 vdd.n336 vdd.n231 557.648
R120 vdd.n346 vdd.n231 557.648
R121 vdd.n346 vdd.n229 557.648
R122 vdd.n348 vdd.n229 557.648
R123 vdd.n330 vdd.n327 557.648
R124 vdd.n330 vdd.n233 557.648
R125 vdd.n233 vdd.n180 557.648
R126 vdd.n350 vdd.n180 557.648
R127 vdd.n294 vdd.n291 557.648
R128 vdd.n302 vdd.n294 557.648
R129 vdd.n302 vdd.n300 557.648
R130 vdd.n300 vdd.n250 557.648
R131 vdd.n295 vdd.n292 557.648
R132 vdd.n296 vdd.n295 557.648
R133 vdd.n298 vdd.n296 557.648
R134 vdd.n298 vdd.n251 557.648
R135 vdd.n328 vdd.n235 557.648
R136 vdd.n344 vdd.n235 557.648
R137 vdd.n344 vdd.n236 557.648
R138 vdd.n236 vdd.n227 557.648
R139 vdd.n339 vdd.n338 557.648
R140 vdd.n339 vdd.n234 557.648
R141 vdd.n238 vdd.n234 557.648
R142 vdd.n238 vdd.n183 557.648
R143 vdd.n70 vdd.n61 190.871
R144 vdd.n70 vdd 190.871
R145 vdd vdd.n69 190.871
R146 vdd.n76 vdd.n56 190.871
R147 vdd.n76 vdd 190.871
R148 vdd vdd.n75 190.871
R149 vdd.n43 vdd.n42 190.871
R150 vdd.n42 vdd 190.871
R151 vdd.n82 vdd.n3 190.871
R152 vdd vdd.n3 190.871
R153 vdd.n35 vdd.n18 190.871
R154 vdd vdd.n35 190.871
R155 vdd.n36 vdd 190.871
R156 vdd.n30 vdd 190.871
R157 vdd vdd.n29 190.871
R158 vdd.n29 vdd.n26 190.871
R159 vdd.n123 vdd 190.871
R160 vdd.n100 vdd 190.871
R161 vdd.n123 vdd.n122 190.871
R162 vdd.n96 vdd 190.871
R163 vdd.n127 vdd 190.871
R164 vdd.n96 vdd.n90 190.871
R165 vdd.n106 vdd.n101 190.871
R166 vdd.n106 vdd 190.871
R167 vdd.n117 vdd 190.871
R168 vdd.n113 vdd 190.871
R169 vdd vdd.n112 190.871
R170 vdd.n112 vdd.n111 190.871
R171 vdd.n207 vdd 190.871
R172 vdd.n216 vdd 190.871
R173 vdd.n207 vdd.n192 190.871
R174 vdd.n223 vdd 190.871
R175 vdd.n188 vdd 190.871
R176 vdd.n223 vdd.n222 190.871
R177 vdd vdd.n335 190.871
R178 vdd.n335 vdd.n334 190.871
R179 vdd vdd.n179 190.871
R180 vdd.n351 vdd.n179 190.871
R181 vdd.n309 vdd 190.871
R182 vdd.n309 vdd.n308 190.871
R183 vdd.n323 vdd 190.871
R184 vdd.n323 vdd.n322 190.871
R185 vdd.n283 vdd 190.871
R186 vdd.n314 vdd 190.871
R187 vdd.n283 vdd.n255 190.871
R188 vdd.n275 vdd 190.871
R189 vdd.n270 vdd 190.871
R190 vdd.n275 vdd.n274 190.871
R191 vdd.n211 vdd.n198 190.871
R192 vdd vdd.n211 190.871
R193 vdd.n212 vdd 190.871
R194 vdd.n202 vdd.n201 190.871
R195 vdd vdd.n202 190.871
R196 vdd.n203 vdd 190.871
R197 vdd.n248 vdd.n237 190.871
R198 vdd vdd.n248 190.871
R199 vdd.n244 vdd.n242 190.871
R200 vdd vdd.n244 190.871
R201 vdd.n287 vdd.n261 190.871
R202 vdd vdd.n287 190.871
R203 vdd.n288 vdd 190.871
R204 vdd.n280 vdd 190.871
R205 vdd vdd.n279 190.871
R206 vdd.n279 vdd.n267 190.871
R207 vdd.n166 vdd 190.871
R208 vdd.n143 vdd 190.871
R209 vdd.n166 vdd.n165 190.871
R210 vdd.n139 vdd 190.871
R211 vdd.n170 vdd 190.871
R212 vdd.n139 vdd.n133 190.871
R213 vdd.n149 vdd.n144 190.871
R214 vdd.n149 vdd 190.871
R215 vdd.n160 vdd 190.871
R216 vdd.n156 vdd 190.871
R217 vdd vdd.n155 190.871
R218 vdd.n155 vdd.n154 190.871
R219 vdd.n69 vdd.n66 190.494
R220 vdd.n75 vdd.n57 190.494
R221 vdd.n36 vdd.n17 190.494
R222 vdd.n30 vdd.n25 190.494
R223 vdd.n121 vdd.n100 190.494
R224 vdd.n128 vdd.n127 190.494
R225 vdd.n118 vdd.n117 190.494
R226 vdd.n113 vdd.n88 190.494
R227 vdd.n217 vdd.n216 190.494
R228 vdd.n221 vdd.n188 190.494
R229 vdd.n315 vdd.n314 190.494
R230 vdd.n273 vdd.n270 190.494
R231 vdd.n212 vdd.n190 190.494
R232 vdd.n203 vdd.n189 190.494
R233 vdd.n288 vdd.n254 190.494
R234 vdd.n280 vdd.n266 190.494
R235 vdd.n164 vdd.n143 190.494
R236 vdd.n171 vdd.n170 190.494
R237 vdd.n161 vdd.n160 190.494
R238 vdd.n156 vdd.n131 190.494
R239 vdd.n32 vdd.n19 179.118
R240 vdd.n33 vdd.n14 179.118
R241 vdd.n38 vdd.n14 179.118
R242 vdd.n40 vdd.n39 179.118
R243 vdd.n39 vdd.n11 179.118
R244 vdd.n49 vdd.n11 179.118
R245 vdd.n49 vdd.n6 179.118
R246 vdd.n80 vdd.n6 179.118
R247 vdd.n80 vdd.n79 179.118
R248 vdd.n78 vdd.n53 179.118
R249 vdd.n73 vdd.n53 179.118
R250 vdd.n72 vdd.n58 179.118
R251 vdd.n28 vdd.n27 173.642
R252 vdd.n68 vdd.n67 173.642
R253 vdd.n83 vdd.n2 131.388
R254 vdd.n51 vdd.n2 131.388
R255 vdd.n45 vdd.n44 131.388
R256 vdd.n45 vdd.n9 131.388
R257 vdd.n347 vdd.n178 131.388
R258 vdd.n352 vdd.n178 131.388
R259 vdd.n332 vdd.n230 131.388
R260 vdd.n333 vdd.n332 131.388
R261 vdd.n301 vdd.n252 131.388
R262 vdd.n321 vdd.n252 131.388
R263 vdd.n306 vdd.n293 131.388
R264 vdd.n307 vdd.n306 131.388
R265 vdd.n241 vdd.n240 131.388
R266 vdd.n245 vdd.n240 131.388
R267 vdd.n342 vdd.n341 131.388
R268 vdd.n341 vdd.n246 131.388
R269 vdd.n79 vdd.n78 120.168
R270 vdd.n33 vdd.n32 117.9
R271 vdd.n73 vdd.n72 117.9
R272 vdd vdd.n16 92.5005
R273 vdd.n16 vdd.n14 92.5005
R274 vdd.n18 vdd.n15 92.5005
R275 vdd.n15 vdd.n14 92.5005
R276 vdd.n52 vdd 92.5005
R277 vdd.n80 vdd.n52 92.5005
R278 vdd vdd.n50 92.5005
R279 vdd.n50 vdd.n49 92.5005
R280 vdd.n13 vdd 92.5005
R281 vdd.n39 vdd.n13 92.5005
R282 vdd.n43 vdd.n12 92.5005
R283 vdd.n39 vdd.n12 92.5005
R284 vdd.n48 vdd.n1 92.5005
R285 vdd.n49 vdd.n48 92.5005
R286 vdd.n82 vdd.n81 92.5005
R287 vdd.n81 vdd.n80 92.5005
R288 vdd vdd.n55 92.5005
R289 vdd.n55 vdd.n53 92.5005
R290 vdd.n56 vdd.n54 92.5005
R291 vdd.n54 vdd.n53 92.5005
R292 vdd vdd.n60 92.5005
R293 vdd.n61 vdd.n59 92.5005
R294 vdd.n59 vdd.n58 92.5005
R295 vdd vdd.n21 92.5005
R296 vdd.n21 vdd.n19 92.5005
R297 vdd.n26 vdd.n20 92.5005
R298 vdd.n103 vdd 92.5005
R299 vdd.n108 vdd.n103 92.5005
R300 vdd.n102 vdd.n101 92.5005
R301 vdd.n104 vdd.n102 92.5005
R302 vdd.n92 vdd.n90 92.5005
R303 vdd.n95 vdd.n92 92.5005
R304 vdd.n91 vdd 92.5005
R305 vdd.n93 vdd.n91 92.5005
R306 vdd.n122 vdd.n99 92.5005
R307 vdd.n99 vdd.n95 92.5005
R308 vdd vdd.n98 92.5005
R309 vdd.n98 vdd.n93 92.5005
R310 vdd vdd.n110 92.5005
R311 vdd.n110 vdd.n108 92.5005
R312 vdd.n111 vdd.n109 92.5005
R313 vdd.n109 vdd.n104 92.5005
R314 vdd vdd.n260 92.5005
R315 vdd.n260 vdd.n258 92.5005
R316 vdd.n261 vdd.n259 92.5005
R317 vdd.n259 vdd.n258 92.5005
R318 vdd vdd.n183 92.5005
R319 vdd.n349 vdd.n183 92.5005
R320 vdd vdd.n234 92.5005
R321 vdd.n345 vdd.n234 92.5005
R322 vdd.n338 vdd 92.5005
R323 vdd.n338 vdd.n337 92.5005
R324 vdd.n328 vdd.n237 92.5005
R325 vdd.n337 vdd.n328 92.5005
R326 vdd.n344 vdd.n343 92.5005
R327 vdd.n345 vdd.n344 92.5005
R328 vdd.n242 vdd.n227 92.5005
R329 vdd.n349 vdd.n227 92.5005
R330 vdd vdd.n200 92.5005
R331 vdd.n200 vdd.n185 92.5005
R332 vdd.n201 vdd.n199 92.5005
R333 vdd.n199 vdd.n185 92.5005
R334 vdd vdd.n197 92.5005
R335 vdd.n197 vdd.n195 92.5005
R336 vdd.n198 vdd.n196 92.5005
R337 vdd.n196 vdd.n195 92.5005
R338 vdd.n274 vdd.n269 92.5005
R339 vdd.n269 vdd.n262 92.5005
R340 vdd vdd.n268 92.5005
R341 vdd.n268 vdd.n262 92.5005
R342 vdd.n257 vdd.n255 92.5005
R343 vdd.n258 vdd.n257 92.5005
R344 vdd.n256 vdd 92.5005
R345 vdd.n258 vdd.n256 92.5005
R346 vdd.n322 vdd.n251 92.5005
R347 vdd.n251 vdd.n249 92.5005
R348 vdd.n296 vdd.n253 92.5005
R349 vdd.n303 vdd.n296 92.5005
R350 vdd.n308 vdd.n292 92.5005
R351 vdd.n292 vdd.n290 92.5005
R352 vdd vdd.n291 92.5005
R353 vdd.n291 vdd.n290 92.5005
R354 vdd.n302 vdd 92.5005
R355 vdd.n303 vdd.n302 92.5005
R356 vdd vdd.n250 92.5005
R357 vdd.n250 vdd.n249 92.5005
R358 vdd.n351 vdd.n350 92.5005
R359 vdd.n350 vdd.n349 92.5005
R360 vdd.n233 vdd.n177 92.5005
R361 vdd.n345 vdd.n233 92.5005
R362 vdd.n334 vdd.n327 92.5005
R363 vdd.n337 vdd.n327 92.5005
R364 vdd.n336 vdd 92.5005
R365 vdd.n337 vdd.n336 92.5005
R366 vdd vdd.n346 92.5005
R367 vdd.n346 vdd.n345 92.5005
R368 vdd.n348 vdd 92.5005
R369 vdd.n349 vdd.n348 92.5005
R370 vdd.n222 vdd.n187 92.5005
R371 vdd.n187 vdd.n185 92.5005
R372 vdd vdd.n186 92.5005
R373 vdd.n186 vdd.n185 92.5005
R374 vdd.n194 vdd.n192 92.5005
R375 vdd.n195 vdd.n194 92.5005
R376 vdd.n193 vdd 92.5005
R377 vdd.n195 vdd.n193 92.5005
R378 vdd vdd.n265 92.5005
R379 vdd.n265 vdd.n262 92.5005
R380 vdd.n267 vdd.n264 92.5005
R381 vdd.n264 vdd.n262 92.5005
R382 vdd.n146 vdd 92.5005
R383 vdd.n151 vdd.n146 92.5005
R384 vdd.n145 vdd.n144 92.5005
R385 vdd.n147 vdd.n145 92.5005
R386 vdd.n135 vdd.n133 92.5005
R387 vdd.n138 vdd.n135 92.5005
R388 vdd.n134 vdd 92.5005
R389 vdd.n136 vdd.n134 92.5005
R390 vdd.n165 vdd.n142 92.5005
R391 vdd.n142 vdd.n138 92.5005
R392 vdd vdd.n141 92.5005
R393 vdd.n141 vdd.n136 92.5005
R394 vdd vdd.n153 92.5005
R395 vdd.n153 vdd.n151 92.5005
R396 vdd.n154 vdd.n152 92.5005
R397 vdd.n152 vdd.n147 92.5005
R398 vdd.n125 vdd.n93 91.6935
R399 vdd.n125 vdd.n95 91.6935
R400 vdd.n115 vdd.n104 91.6935
R401 vdd.n115 vdd.n108 91.6935
R402 vdd.n168 vdd.n136 91.6935
R403 vdd.n168 vdd.n138 91.6935
R404 vdd.n158 vdd.n147 91.6935
R405 vdd.n158 vdd.n151 91.6935
R406 vdd.n277 vdd.n262 89.559
R407 vdd.n282 vdd.n262 89.559
R408 vdd.n285 vdd.n258 89.559
R409 vdd.n312 vdd.n258 89.559
R410 vdd.n311 vdd.n290 89.559
R411 vdd.n304 vdd.n290 89.559
R412 vdd.n304 vdd.n303 89.559
R413 vdd.n303 vdd.n297 89.559
R414 vdd.n297 vdd.n249 89.559
R415 vdd.n325 vdd.n249 89.559
R416 vdd.n337 vdd.n326 89.559
R417 vdd.n337 vdd.n232 89.559
R418 vdd.n345 vdd.n232 89.559
R419 vdd.n345 vdd.n182 89.559
R420 vdd.n349 vdd.n182 89.559
R421 vdd.n349 vdd.n226 89.559
R422 vdd.n225 vdd.n185 89.559
R423 vdd.n206 vdd.n185 89.559
R424 vdd.n209 vdd.n195 89.559
R425 vdd.n214 vdd.n195 89.559
R426 vdd.n67 vdd.n60 79.4196
R427 vdd.n27 vdd.n20 79.4196
R428 vdd.n312 vdd.n311 60.084
R429 vdd.n326 vdd.n325 60.084
R430 vdd.n226 vdd.n225 60.084
R431 vdd.n44 vdd.n43 59.4829
R432 vdd.n44 vdd.n1 59.4829
R433 vdd.n83 vdd.n82 59.4829
R434 vdd vdd.n9 59.4829
R435 vdd vdd.n9 59.4829
R436 vdd.n51 vdd 59.4829
R437 vdd vdd.n51 59.4829
R438 vdd vdd.n230 59.4829
R439 vdd vdd.n230 59.4829
R440 vdd.n347 vdd 59.4829
R441 vdd vdd.n347 59.4829
R442 vdd.n334 vdd.n333 59.4829
R443 vdd.n333 vdd.n177 59.4829
R444 vdd.n352 vdd.n351 59.4829
R445 vdd.n293 vdd 59.4829
R446 vdd vdd.n293 59.4829
R447 vdd vdd.n301 59.4829
R448 vdd.n301 vdd 59.4829
R449 vdd.n308 vdd.n307 59.4829
R450 vdd.n307 vdd.n253 59.4829
R451 vdd.n322 vdd.n321 59.4829
R452 vdd.n342 vdd.n237 59.4829
R453 vdd.n343 vdd.n342 59.4829
R454 vdd.n242 vdd.n241 59.4829
R455 vdd vdd.n246 59.4829
R456 vdd.n246 vdd 59.4829
R457 vdd vdd.n245 59.4829
R458 vdd.n245 vdd 59.4829
R459 vdd.n84 vdd.n83 59.1064
R460 vdd.n353 vdd.n352 59.1064
R461 vdd.n321 vdd.n320 59.1064
R462 vdd.n241 vdd.n175 59.1064
R463 vdd.n285 vdd.n282 58.9504
R464 vdd.n209 vdd.n206 58.9504
R465 vdd.n104 vdd.n95 26.5564
R466 vdd.n147 vdd.n138 26.5564
R467 vdd.n37 vdd.n36 23.1255
R468 vdd.n38 vdd.n37 23.1255
R469 vdd.n35 vdd.n34 23.1255
R470 vdd.n34 vdd.n33 23.1255
R471 vdd.n46 vdd.n45 23.1255
R472 vdd.n46 vdd.n11 23.1255
R473 vdd.n7 vdd.n2 23.1255
R474 vdd.n7 vdd.n6 23.1255
R475 vdd.n5 vdd.n3 23.1255
R476 vdd.n79 vdd.n5 23.1255
R477 vdd.n42 vdd.n41 23.1255
R478 vdd.n41 vdd.n40 23.1255
R479 vdd.n75 vdd.n74 23.1255
R480 vdd.n74 vdd.n73 23.1255
R481 vdd.n77 vdd.n76 23.1255
R482 vdd.n78 vdd.n77 23.1255
R483 vdd.n69 vdd.n68 23.1255
R484 vdd.n71 vdd.n70 23.1255
R485 vdd.n72 vdd.n71 23.1255
R486 vdd.n31 vdd.n30 23.1255
R487 vdd.n32 vdd.n31 23.1255
R488 vdd.n29 vdd.n28 23.1255
R489 vdd.n117 vdd.n116 23.1255
R490 vdd.n116 vdd.n115 23.1255
R491 vdd.n107 vdd.n106 23.1255
R492 vdd.n115 vdd.n107 23.1255
R493 vdd.n127 vdd.n126 23.1255
R494 vdd.n126 vdd.n125 23.1255
R495 vdd.n97 vdd.n96 23.1255
R496 vdd.n125 vdd.n97 23.1255
R497 vdd.n100 vdd.n94 23.1255
R498 vdd.n125 vdd.n94 23.1255
R499 vdd.n124 vdd.n123 23.1255
R500 vdd.n125 vdd.n124 23.1255
R501 vdd.n114 vdd.n113 23.1255
R502 vdd.n115 vdd.n114 23.1255
R503 vdd.n112 vdd.n105 23.1255
R504 vdd.n115 vdd.n105 23.1255
R505 vdd.n289 vdd.n288 23.1255
R506 vdd.n312 vdd.n289 23.1255
R507 vdd.n287 vdd.n286 23.1255
R508 vdd.n286 vdd.n285 23.1255
R509 vdd.n341 vdd.n340 23.1255
R510 vdd.n340 vdd.n232 23.1255
R511 vdd.n240 vdd.n239 23.1255
R512 vdd.n239 vdd.n182 23.1255
R513 vdd.n244 vdd.n243 23.1255
R514 vdd.n243 vdd.n226 23.1255
R515 vdd.n248 vdd.n247 23.1255
R516 vdd.n326 vdd.n247 23.1255
R517 vdd.n204 vdd.n203 23.1255
R518 vdd.n206 vdd.n204 23.1255
R519 vdd.n202 vdd.n184 23.1255
R520 vdd.n225 vdd.n184 23.1255
R521 vdd.n213 vdd.n212 23.1255
R522 vdd.n214 vdd.n213 23.1255
R523 vdd.n211 vdd.n210 23.1255
R524 vdd.n210 vdd.n209 23.1255
R525 vdd.n270 vdd.n263 23.1255
R526 vdd.n282 vdd.n263 23.1255
R527 vdd.n276 vdd.n275 23.1255
R528 vdd.n277 vdd.n276 23.1255
R529 vdd.n314 vdd.n313 23.1255
R530 vdd.n313 vdd.n312 23.1255
R531 vdd.n284 vdd.n283 23.1255
R532 vdd.n285 vdd.n284 23.1255
R533 vdd.n306 vdd.n305 23.1255
R534 vdd.n305 vdd.n304 23.1255
R535 vdd.n299 vdd.n252 23.1255
R536 vdd.n299 vdd.n297 23.1255
R537 vdd.n324 vdd.n323 23.1255
R538 vdd.n325 vdd.n324 23.1255
R539 vdd.n310 vdd.n309 23.1255
R540 vdd.n311 vdd.n310 23.1255
R541 vdd.n332 vdd.n331 23.1255
R542 vdd.n331 vdd.n232 23.1255
R543 vdd.n228 vdd.n178 23.1255
R544 vdd.n228 vdd.n182 23.1255
R545 vdd.n181 vdd.n179 23.1255
R546 vdd.n226 vdd.n181 23.1255
R547 vdd.n335 vdd.n329 23.1255
R548 vdd.n329 vdd.n326 23.1255
R549 vdd.n205 vdd.n188 23.1255
R550 vdd.n206 vdd.n205 23.1255
R551 vdd.n224 vdd.n223 23.1255
R552 vdd.n225 vdd.n224 23.1255
R553 vdd.n216 vdd.n215 23.1255
R554 vdd.n215 vdd.n214 23.1255
R555 vdd.n208 vdd.n207 23.1255
R556 vdd.n209 vdd.n208 23.1255
R557 vdd.n281 vdd.n280 23.1255
R558 vdd.n282 vdd.n281 23.1255
R559 vdd.n279 vdd.n278 23.1255
R560 vdd.n278 vdd.n277 23.1255
R561 vdd.n160 vdd.n159 23.1255
R562 vdd.n159 vdd.n158 23.1255
R563 vdd.n150 vdd.n149 23.1255
R564 vdd.n158 vdd.n150 23.1255
R565 vdd.n170 vdd.n169 23.1255
R566 vdd.n169 vdd.n168 23.1255
R567 vdd.n140 vdd.n139 23.1255
R568 vdd.n168 vdd.n140 23.1255
R569 vdd.n143 vdd.n137 23.1255
R570 vdd.n168 vdd.n137 23.1255
R571 vdd.n167 vdd.n166 23.1255
R572 vdd.n168 vdd.n167 23.1255
R573 vdd.n157 vdd.n156 23.1255
R574 vdd.n158 vdd.n157 23.1255
R575 vdd.n155 vdd.n148 23.1255
R576 vdd.n158 vdd.n148 23.1255
R577 vdd.n67 vdd.n58 8.97701
R578 vdd.n27 vdd.n19 8.97701
R579 vdd vdd.n86 2.79913
R580 vdd.n64 vdd 2.3405
R581 vdd.n63 vdd 2.3405
R582 vdd.n22 vdd 2.3405
R583 vdd.n24 vdd 2.3405
R584 vdd.n89 vdd 2.3405
R585 vdd.n89 vdd 2.3405
R586 vdd.n119 vdd 2.3405
R587 vdd.n119 vdd 2.3405
R588 vdd.n271 vdd 2.3405
R589 vdd.n271 vdd 2.3405
R590 vdd.n317 vdd 2.3405
R591 vdd.n317 vdd 2.3405
R592 vdd.n219 vdd 2.3405
R593 vdd.n219 vdd 2.3405
R594 vdd.n191 vdd 2.3405
R595 vdd.n191 vdd 2.3405
R596 vdd.n132 vdd 2.3405
R597 vdd.n132 vdd 2.3405
R598 vdd.n162 vdd 2.3405
R599 vdd.n162 vdd 2.3405
R600 vdd.n0 vdd 2.29412
R601 vdd.n318 vdd 2.29412
R602 vdd.n176 vdd 2.29412
R603 vdd.n176 vdd 2.29412
R604 vdd.n25 vdd.n24 2.07925
R605 vdd.n130 vdd.n87 2.02473
R606 vdd.n23 vdd.n17 1.8605
R607 vdd.n62 vdd.n57 1.8605
R608 vdd.n66 vdd.n65 1.8605
R609 vdd.n129 vdd.n88 1.8605
R610 vdd.n120 vdd.n118 1.8605
R611 vdd.n129 vdd.n128 1.8605
R612 vdd.n121 vdd.n120 1.8605
R613 vdd.n272 vdd.n266 1.8605
R614 vdd.n316 vdd.n254 1.8605
R615 vdd.n220 vdd.n189 1.8605
R616 vdd.n218 vdd.n190 1.8605
R617 vdd.n273 vdd.n272 1.8605
R618 vdd.n316 vdd.n315 1.8605
R619 vdd.n221 vdd.n220 1.8605
R620 vdd.n218 vdd.n217 1.8605
R621 vdd.n172 vdd.n131 1.8605
R622 vdd.n163 vdd.n161 1.8605
R623 vdd.n172 vdd.n171 1.8605
R624 vdd.n164 vdd.n163 1.8605
R625 vdd.n357 vdd.n356 1.76063
R626 vdd.n173 vdd.n87 1.75125
R627 vdd.n86 vdd 1.65831
R628 vdd.n356 vdd.n174 1.28995
R629 vdd.n174 vdd.n130 1.28887
R630 vdd.n174 vdd.n173 1.06531
R631 vdd.n130 vdd.n129 1.06168
R632 vdd.n173 vdd.n172 1.06168
R633 vdd.n86 vdd.n85 0.814562
R634 vdd.n85 vdd.n0 0.720812
R635 vdd.n85 vdd.n84 0.715885
R636 vdd.n354 vdd.n175 0.715885
R637 vdd.n320 vdd.n319 0.715885
R638 vdd.n354 vdd.n353 0.715885
R639 vdd.n319 vdd 0.413
R640 vdd.n355 vdd.n354 0.410656
R641 vdd.n66 vdd.n61 0.376971
R642 vdd.n57 vdd.n56 0.376971
R643 vdd.n84 vdd.n1 0.376971
R644 vdd.n18 vdd.n17 0.376971
R645 vdd.n26 vdd.n25 0.376971
R646 vdd.n122 vdd.n121 0.376971
R647 vdd.n128 vdd.n90 0.376971
R648 vdd.n118 vdd.n101 0.376971
R649 vdd.n111 vdd.n88 0.376971
R650 vdd.n217 vdd.n192 0.376971
R651 vdd.n222 vdd.n221 0.376971
R652 vdd.n353 vdd.n177 0.376971
R653 vdd.n320 vdd.n253 0.376971
R654 vdd.n315 vdd.n255 0.376971
R655 vdd.n274 vdd.n273 0.376971
R656 vdd.n198 vdd.n190 0.376971
R657 vdd.n201 vdd.n189 0.376971
R658 vdd.n343 vdd.n175 0.376971
R659 vdd.n261 vdd.n254 0.376971
R660 vdd.n267 vdd.n266 0.376971
R661 vdd.n165 vdd.n164 0.376971
R662 vdd.n171 vdd.n133 0.376971
R663 vdd.n161 vdd.n144 0.376971
R664 vdd.n154 vdd.n131 0.376971
R665 vdd.n319 vdd.n318 0.360656
R666 vdd.n354 vdd.n176 0.360656
R667 vdd.n62 vdd 0.33175
R668 vdd vdd.n23 0.328625
R669 vdd.n65 vdd 0.328625
R670 vdd.n357 vdd.n87 0.263158
R671 vdd.n23 vdd.n22 0.21925
R672 vdd.n63 vdd.n62 0.21925
R673 vdd.n65 vdd.n64 0.21925
R674 vdd.n220 vdd 0.166125
R675 vdd.n120 vdd 0.164562
R676 vdd.n316 vdd 0.164562
R677 vdd vdd.n218 0.164562
R678 vdd.n163 vdd 0.164562
R679 vdd.n24 vdd 0.109875
R680 vdd.n22 vdd 0.109875
R681 vdd vdd.n63 0.109875
R682 vdd.n64 vdd 0.109875
R683 vdd.n129 vdd.n89 0.109875
R684 vdd.n120 vdd.n119 0.109875
R685 vdd.n272 vdd.n271 0.109875
R686 vdd.n317 vdd.n316 0.109875
R687 vdd.n220 vdd.n219 0.109875
R688 vdd.n218 vdd.n191 0.109875
R689 vdd.n172 vdd.n132 0.109875
R690 vdd.n163 vdd.n162 0.109875
R691 vdd vdd.n0 0.102062
R692 vdd.n356 vdd.n355 0.0780862
R693 vdd vdd.n89 0.0551875
R694 vdd.n119 vdd 0.0551875
R695 vdd.n271 vdd 0.0551875
R696 vdd vdd.n317 0.0551875
R697 vdd.n219 vdd 0.0551875
R698 vdd.n191 vdd 0.0551875
R699 vdd vdd.n132 0.0551875
R700 vdd.n162 vdd 0.0551875
R701 vdd.n318 vdd 0.0512812
R702 vdd vdd.n176 0.0512812
R703 vdd vdd.n357 0.00538077
R704 vdd.n355 vdd 0.00284375
R705 vss.n107 vss.n106 4116.13
R706 vss.n298 vss.n207 2547.63
R707 vss.n203 vss.n187 2510.19
R708 vss.n306 vss.n202 2306.06
R709 vss.n306 vss.n203 2306.06
R710 vss.n202 vss.n187 2306.06
R711 vss.n234 vss.n201 2306.06
R712 vss.n237 vss.n201 2306.06
R713 vss.n234 vss.n185 2306.06
R714 vss.n237 vss.n185 2306.06
R715 vss.n323 vss.n308 2306.06
R716 vss.n308 vss.n189 2306.06
R717 vss.n314 vss.n307 2306.06
R718 vss.n314 vss.n188 2306.06
R719 vss.n327 vss.n199 2306.06
R720 vss.n328 vss.n327 2306.06
R721 vss.n199 vss.n184 2306.06
R722 vss.n328 vss.n184 2306.06
R723 vss.n325 vss.n190 2306.06
R724 vss.n325 vss.n191 2306.06
R725 vss.n335 vss.n190 2306.06
R726 vss.n335 vss.n191 2306.06
R727 vss.n220 vss.n207 2306.06
R728 vss.n220 vss.n208 2306.06
R729 vss.n298 vss.n208 2306.06
R730 vss.n232 vss.n218 2306.06
R731 vss.n245 vss.n232 2306.06
R732 vss.n233 vss.n218 2306.06
R733 vss.n245 vss.n233 2306.06
R734 vss.n247 vss.n216 2306.06
R735 vss.n252 vss.n216 2306.06
R736 vss.n260 vss.n246 2306.06
R737 vss.n264 vss.n246 2306.06
R738 vss.n221 vss.n212 2306.06
R739 vss.n221 vss.n213 2306.06
R740 vss.n225 vss.n212 2306.06
R741 vss.n225 vss.n213 2306.06
R742 vss.n226 vss.n210 2306.06
R743 vss.n226 vss.n211 2306.06
R744 vss.n230 vss.n210 2306.06
R745 vss.n230 vss.n211 2306.06
R746 vss.n275 vss.n214 2306.06
R747 vss.n277 vss.n214 2306.06
R748 vss.n287 vss.n271 2306.06
R749 vss.n290 vss.n271 2306.06
R750 vss.n153 vss.n135 2306.06
R751 vss.n144 vss.n135 2306.06
R752 vss.n153 vss.n136 2306.06
R753 vss.n144 vss.n136 2306.06
R754 vss.n125 vss.n120 2306.06
R755 vss.n132 vss.n125 2306.06
R756 vss.n126 vss.n120 2306.06
R757 vss.n132 vss.n126 2306.06
R758 vss.n110 vss.n81 2306.06
R759 vss.n108 vss.n81 2306.06
R760 vss.n164 vss.n118 2306.06
R761 vss.n119 vss.n118 2306.06
R762 vss.n94 vss.n83 2306.06
R763 vss.n105 vss.n83 2306.06
R764 vss.n94 vss.n84 2306.06
R765 vss.n105 vss.n84 2306.06
R766 vss.n97 vss.n87 2306.06
R767 vss.n90 vss.n88 2306.06
R768 vss.n97 vss.n88 2306.06
R769 vss.n142 vss.n133 2306.06
R770 vss.n146 vss.n142 2306.06
R771 vss.n143 vss.n133 2306.06
R772 vss.n146 vss.n143 2306.06
R773 vss.n160 vss.n122 2306.06
R774 vss.n156 vss.n122 2306.06
R775 vss.n160 vss.n123 2306.06
R776 vss.n156 vss.n123 2306.06
R777 vss.n62 vss.n36 2306.06
R778 vss.n36 vss.n32 2306.06
R779 vss.n62 vss.n37 2306.06
R780 vss.n37 vss.n32 2306.06
R781 vss.n35 vss.n29 2306.06
R782 vss.n64 vss.n29 2306.06
R783 vss.n35 vss.n30 2306.06
R784 vss.n64 vss.n30 2306.06
R785 vss.n46 vss.n41 2306.06
R786 vss.n55 vss.n41 2306.06
R787 vss.n46 vss.n42 2306.06
R788 vss.n55 vss.n42 2306.06
R789 vss.n48 vss.n44 2306.06
R790 vss.n53 vss.n48 2306.06
R791 vss.n49 vss.n44 2306.06
R792 vss.n53 vss.n49 2306.06
R793 vss.n19 vss.n9 2306.06
R794 vss.n13 vss.n9 2306.06
R795 vss.n19 vss.n10 2306.06
R796 vss.n22 vss.n2 2306.06
R797 vss.n22 vss.n3 2306.06
R798 vss.n5 vss.n3 2306.06
R799 vss.n312 vss.n311 1390.59
R800 vss.n312 vss.n182 1390.59
R801 vss.n319 vss.n309 1390.59
R802 vss.n319 vss.n181 1390.59
R803 vss.n259 vss.n217 1390.59
R804 vss.n265 vss.n217 1390.59
R805 vss.n270 vss.n248 1390.59
R806 vss.n270 vss.n249 1390.59
R807 vss.n296 vss.n272 1390.59
R808 vss.n296 vss.n273 1390.59
R809 vss.n286 vss.n215 1390.59
R810 vss.n291 vss.n215 1390.59
R811 vss.n115 vss.n79 1390.59
R812 vss.n115 vss.n75 1390.59
R813 vss.n112 vss.n78 1390.59
R814 vss.n112 vss.n74 1390.59
R815 vss.n21 vss.n7 1121.29
R816 vss.n20 vss.n8 1121.29
R817 vss.n323 vss.n309 915.471
R818 vss.n309 vss.n200 915.471
R819 vss.n311 vss.n200 915.471
R820 vss.n311 vss.n307 915.471
R821 vss.n189 vss.n181 915.471
R822 vss.n337 vss.n181 915.471
R823 vss.n337 vss.n182 915.471
R824 vss.n188 vss.n182 915.471
R825 vss.n248 vss.n247 915.471
R826 vss.n258 vss.n248 915.471
R827 vss.n259 vss.n258 915.471
R828 vss.n260 vss.n259 915.471
R829 vss.n252 vss.n249 915.471
R830 vss.n266 vss.n249 915.471
R831 vss.n266 vss.n265 915.471
R832 vss.n265 vss.n264 915.471
R833 vss.n275 vss.n272 915.471
R834 vss.n285 vss.n272 915.471
R835 vss.n286 vss.n285 915.471
R836 vss.n287 vss.n286 915.471
R837 vss.n277 vss.n273 915.471
R838 vss.n292 vss.n273 915.471
R839 vss.n292 vss.n291 915.471
R840 vss.n291 vss.n290 915.471
R841 vss.n110 vss.n78 915.471
R842 vss.n168 vss.n78 915.471
R843 vss.n168 vss.n79 915.471
R844 vss.n164 vss.n79 915.471
R845 vss.n108 vss.n74 915.471
R846 vss.n170 vss.n74 915.471
R847 vss.n170 vss.n75 915.471
R848 vss.n119 vss.n75 915.471
R849 vss.n6 vss.n5 744.25
R850 vss.n13 vss.n12 744.25
R851 vss.n21 vss.n20 738.066
R852 vss.n96 vss.n92 560.645
R853 vss.n95 vss.n82 560.645
R854 vss.n106 vss.n82 560.645
R855 vss.n109 vss.n107 560.645
R856 vss.n109 vss.n76 560.645
R857 vss.n169 vss.n76 560.645
R858 vss.n169 vss.n77 560.645