* NGSPICE file created from tt_um_tinyflash_extracted.ext - technology: sky130A

.subckt sky130_fd_pr__res_xhigh_po_1p41_UKZ7C9 B R1 R2
X0 R1 R2 B sky130_fd_pr__res_xhigh_po_1p41 l=7
C0 R2 R1 0.01316f
C1 R2 B 0.87037f
C2 R1 B 0.87037f
.ends

.subckt sky130_fd_pr__nfet_01v8_lvt_ELBHUY B D S G
X0 S G D B sky130_fd_pr__nfet_01v8_lvt ad=1.45 pd=10.58 as=1.45 ps=10.58 w=5 l=1
C0 G D 0.11229f
C1 S D 0.27388f
C2 S G 0.11229f
C3 S B 0.59197f
C4 D B 0.59197f
C5 G B 0.75059f
.ends

.subckt sky130_fd_pr__pfet_01v8_lvt_VTBKAA D S G w_n200_n1220# VSUBS
X0 S G D w_n200_n1220# sky130_fd_pr__pfet_01v8_lvt ad=2.9 pd=20.58 as=2.9 ps=20.58 w=10 l=1
C0 S G 0.21915f
C1 S w_n200_n1220# 0.62529f
C2 w_n200_n1220# G 0.28692f
C3 D S 0.54671f
C4 D G 0.21915f
C5 D w_n200_n1220# 0.04108f
C6 S VSUBS 0.52213f
C7 D VSUBS 0.93676f
C8 G VSUBS 0.45532f
C9 w_n200_n1220# VSUBS 4.23183f
.ends

.subckt vbias_generation bias_n XR_bias_2/R2 XR_bias_1/R2 XR_bias_4/R1 vdd XR_bias_3/R2
+ bias_p vss
XXR_bias_1 vss XR_bias_2/R2 XR_bias_1/R2 sky130_fd_pr__res_xhigh_po_1p41_UKZ7C9
XXR_bias_2 vss XR_bias_3/R2 XR_bias_2/R2 sky130_fd_pr__res_xhigh_po_1p41_UKZ7C9
XXR_bias_3 vss XR_bias_4/R1 XR_bias_3/R2 sky130_fd_pr__res_xhigh_po_1p41_UKZ7C9
XXR_bias_4 vss XR_bias_4/R1 bias_n sky130_fd_pr__res_xhigh_po_1p41_UKZ7C9
XXMn_bias vss bias_n vss bias_n sky130_fd_pr__nfet_01v8_lvt_ELBHUY
XXMp_bias bias_p vdd bias_p vdd vss sky130_fd_pr__pfet_01v8_lvt_VTBKAA
C0 XR_bias_3/R2 XR_bias_1/R2 0.1119f
C1 vdd XR_bias_1/R2 0.00287f
C2 XR_bias_2/R2 XR_bias_4/R1 0.1119f
C3 XR_bias_3/R2 bias_n 0.11211f
C4 XR_bias_3/R2 bias_p 0
C5 vdd bias_p 0.11094f
C6 bias_p XR_bias_1/R2 0.05695f
C7 XR_bias_3/R2 XR_bias_4/R1 0
C8 XR_bias_3/R2 XR_bias_2/R2 0
C9 XR_bias_2/R2 vdd 0.01298f
C10 XR_bias_2/R2 XR_bias_1/R2 0
C11 XR_bias_4/R1 bias_n 0
C12 XR_bias_4/R1 bias_p 0
C13 XR_bias_2/R2 bias_p 0.04272f
C14 vdd vss 5.12115f
C15 bias_p vss 1.25296f
C16 bias_n vss 2.50406f
C17 XR_bias_4/R1 vss 1.66866f
C18 XR_bias_3/R2 vss 1.56208f
C19 XR_bias_2/R2 vss 1.60214f
C20 XR_bias_1/R2 vss 0.76544f
.ends

.subckt sky130_fd_pr__res_xhigh_po_5p73_JT48NU B R1 R2
X0 R1 R2 B sky130_fd_pr__res_xhigh_po_5p73 l=5.73
C0 R1 R2 0.06813f
C1 R2 B 1.79077f
C2 R1 B 1.79077f
.ends

.subckt res_ladder_vref ref2 ref5 ref6 vref ref3 ref1 ref0 ref4 vss
XXR1 vss ref6 vref sky130_fd_pr__res_xhigh_po_5p73_JT48NU
XXR2 vss ref6 vref sky130_fd_pr__res_xhigh_po_5p73_JT48NU
XXR10 vss ref0 vss sky130_fd_pr__res_xhigh_po_5p73_JT48NU
XXR3 vss ref6 ref5 sky130_fd_pr__res_xhigh_po_5p73_JT48NU
XXR4 vss ref4 ref5 sky130_fd_pr__res_xhigh_po_5p73_JT48NU
XXR5 vss ref4 ref3 sky130_fd_pr__res_xhigh_po_5p73_JT48NU
XXR6 vss ref2 ref3 sky130_fd_pr__res_xhigh_po_5p73_JT48NU
XXR7 vss ref2 ref1 sky130_fd_pr__res_xhigh_po_5p73_JT48NU
XXR8 vss ref0 ref1 sky130_fd_pr__res_xhigh_po_5p73_JT48NU
XXR9 vss ref0 vss sky130_fd_pr__res_xhigh_po_5p73_JT48NU
C0 ref1 ref0 0
C1 vss ref1 0.25149f
C2 vref ref6 0.16095f
C3 ref3 ref5 0.11224f
C4 vref ref5 0.11224f
C5 ref3 ref4 0
C6 ref3 vss 0.13925f
C7 ref2 ref0 0.11224f
C8 ref2 ref4 0.11224f
C9 vss vref 0.56362f
C10 vss ref2 0.13925f
C11 ref6 ref5 0
C12 ref3 ref1 0.11224f
C13 ref6 ref4 0.11224f
C14 vss ref6 0.25998f
C15 ref1 ref2 0
C16 ref4 ref5 0
C17 vss ref5 0.13925f
C18 vss ref0 0.4239f
C19 vss ref4 0.13925f
C20 ref3 ref2 0
C21 vss 0 -4.81991f
C22 ref1 0 3.26193f
C23 ref2 0 3.26193f
C24 ref3 0 3.26193f
C25 ref4 0 3.26193f
C26 ref5 0 3.26193f
C27 ref6 0 4.96136f
C28 ref0 0 4.96062f
C29 vref 0 4.20822f
.ends

.subckt sky130_fd_pr__nfet_01v8_lvt_MMMA4V a_n260_n698# a_100_n500# a_n158_n500# a_n100_n588#
X0 a_100_n500# a_n100_n588# a_n158_n500# a_n260_n698# sky130_fd_pr__nfet_01v8_lvt ad=1.45 pd=10.58 as=1.45 ps=10.58 w=5 l=1
C0 a_100_n500# a_n158_n500# 0.27388f
C1 a_100_n500# a_n100_n588# 0.11229f
C2 a_n100_n588# a_n158_n500# 0.11229f
C3 a_100_n500# a_n260_n698# 0.5905f
C4 a_n158_n500# a_n260_n698# 0.5905f
C5 a_n100_n588# a_n260_n698# 0.7183f
.ends

.subckt sky130_fd_pr__pfet_01v8_lvt_5VNMZ8 a_n100_n897# a_100_n800# w_n296_n1019#
+ a_n158_n800# VSUBS
X0 a_100_n800# a_n100_n897# a_n158_n800# w_n296_n1019# sky130_fd_pr__pfet_01v8_lvt ad=2.32 pd=16.58 as=2.32 ps=16.58 w=8 l=1
C0 a_n158_n800# a_100_n800# 0.43758f
C1 a_n158_n800# a_n100_n897# 0.17641f
C2 a_100_n800# a_n100_n897# 0.17641f
C3 a_n158_n800# w_n296_n1019# 0.51205f
C4 a_100_n800# w_n296_n1019# 0.51205f
C5 w_n296_n1019# a_n100_n897# 0.43443f
C6 a_100_n800# VSUBS 0.41369f
C7 a_n158_n800# VSUBS 0.41369f
C8 a_n100_n897# VSUBS 0.36418f
C9 w_n296_n1019# VSUBS 4.82082f
.ends

.subckt sky130_fd_pr__nfet_01v8_lvt_AHMAL2 a_n260_n574# a_100_n400# a_n158_n400# a_n100_n488#
X0 a_100_n400# a_n100_n488# a_n158_n400# a_n260_n574# sky130_fd_pr__nfet_01v8_lvt ad=1.16 pd=8.58 as=1.16 ps=8.58 w=4 l=1
C0 a_100_n400# a_n158_n400# 0.21931f
C1 a_100_n400# a_n100_n488# 0.09092f
C2 a_n100_n488# a_n158_n400# 0.09092f
C3 a_100_n400# a_n260_n574# 0.48057f
C4 a_n158_n400# a_n260_n574# 0.48057f
C5 a_n100_n488# a_n260_n574# 0.74751f
.ends

.subckt sky130_fd_pr__pfet_01v8_lvt_GUWLND a_n158_n1000# a_n100_n1097# w_n296_n1219#
+ a_100_n1000# VSUBS
X0 a_100_n1000# a_n100_n1097# a_n158_n1000# w_n296_n1219# sky130_fd_pr__pfet_01v8_lvt ad=2.9 pd=20.58 as=2.9 ps=20.58 w=10 l=1
C0 a_n158_n1000# a_100_n1000# 0.54671f
C1 a_n158_n1000# a_n100_n1097# 0.21915f
C2 a_100_n1000# a_n100_n1097# 0.21915f
C3 a_n158_n1000# w_n296_n1219# 0.634f
C4 a_100_n1000# w_n296_n1219# 0.634f
C5 w_n296_n1219# a_n100_n1097# 0.43443f
C6 a_100_n1000# VSUBS 0.51455f
C7 a_n158_n1000# VSUBS 0.51455f
C8 a_n100_n1097# VSUBS 0.36418f
C9 w_n296_n1219# VSUBS 5.72384f
.ends

.subckt comp_p vinp vinn vbias_p vdd tail vout latch_right out_left latch_left vss
XXMn_cs_left vss latch_right vss latch_left sky130_fd_pr__nfet_01v8_lvt_MMMA4V
XXMp_out out_left vdd vdd vout vss sky130_fd_pr__pfet_01v8_lvt_5VNMZ8
XXMn_diode_left1 vss latch_left vss latch_left sky130_fd_pr__nfet_01v8_lvt_AHMAL2
XXMn_cs_right1 vss latch_left vss latch_right sky130_fd_pr__nfet_01v8_lvt_MMMA4V
XXMn_diode_right vss latch_right vss latch_right sky130_fd_pr__nfet_01v8_lvt_AHMAL2
Xsky130_fd_pr__pfet_01v8_lvt_5VNMZ8_0 out_left vdd vdd out_left vss sky130_fd_pr__pfet_01v8_lvt_5VNMZ8
XXMn_out_left vss out_left vss latch_left sky130_fd_pr__nfet_01v8_lvt_MMMA4V
XXMn_out_right vss vout vss latch_right sky130_fd_pr__nfet_01v8_lvt_MMMA4V
XXMp_tail tail vbias_p vdd vdd vss sky130_fd_pr__pfet_01v8_lvt_GUWLND
X0 tail vinn latch_left vdd sky130_fd_pr__pfet_01v8_lvt ad=2.89855 pd=20.57 as=2.89855 ps=20.57 w=9.995 l=0.35
X1 tail vinp latch_right vdd sky130_fd_pr__pfet_01v8_lvt ad=2.89855 pd=20.57 as=2.89855 ps=20.57 w=9.995 l=0.35
X2 tail vinp latch_right vdd sky130_fd_pr__pfet_01v8_lvt ad=2.89855 pd=20.57 as=2.89855 ps=20.57 w=9.995 l=0.35
X3 tail vinp latch_right vdd sky130_fd_pr__pfet_01v8_lvt ad=2.89855 pd=20.57 as=2.89855 ps=20.57 w=9.995 l=0.35
X4 tail vinp latch_right vdd sky130_fd_pr__pfet_01v8_lvt ad=2.89855 pd=20.57 as=2.89855 ps=20.57 w=9.995 l=0.35
X5 tail vinn latch_left vdd sky130_fd_pr__pfet_01v8_lvt ad=2.89855 pd=20.57 as=2.89855 ps=20.57 w=9.995 l=0.35
X6 tail vinn latch_left vdd sky130_fd_pr__pfet_01v8_lvt ad=2.89855 pd=20.57 as=2.89855 ps=20.57 w=9.995 l=0.35
X7 tail vinn latch_left vdd sky130_fd_pr__pfet_01v8_lvt ad=2.89855 pd=20.57 as=2.89855 ps=20.57 w=9.995 l=0.35
C0 vinp out_left 0.22514f
C1 vinp vdd 4.26352f
C2 vbias_p out_left 0.84152f
C3 vinn latch_right 3.53507f
C4 vbias_p vdd 2.11961f
C5 vout vinn 0.12978f
C6 tail latch_right 8.8942f
C7 vout tail 0.00803f
C8 vinn latch_left 1.33911f
C9 vinp vbias_p 0.03011f
C10 latch_right out_left 0.1431f
C11 latch_right vdd 1.44611f
C12 tail latch_left 8.82993f
C13 vout out_left 0.6058f
C14 vout vdd 1.62919f
C15 latch_left out_left 0.73463f
C16 latch_left vdd 1.3971f
C17 vinp latch_right 0.51311f
C18 vbias_p latch_right 0.00109f
C19 tail vinn 0.82695f
C20 vout vinp 0.03655f
C21 vout vbias_p 0.14426f
C22 vinp latch_left 0.5043f
C23 vbias_p latch_left 0.00103f
C24 vinn out_left 0.08183f
C25 vinn vdd 2.30474f
C26 tail out_left 0.00652f
C27 tail vdd 2.22915f
C28 vout latch_right 0.72835f
C29 vinp vinn 1.25697f
C30 latch_left latch_right 5.15792f
C31 vinn vbias_p 0.00222f
C32 vdd out_left 2.99708f
C33 vinp tail 2.91757f
C34 vout latch_left 0.14014f
C35 tail vbias_p 0.65167f
C36 vinp vss 0.4258f
C37 vinn vss 0.50566f
C38 tail vss 1.09774f
C39 vbias_p vss 0.82905f
C40 vdd vss 43.54159f
C41 vout vss 3.2381f
C42 latch_right vss 4.74799f
C43 out_left vss 3.38408f
C44 latch_left vss 5.11722f
.ends

.subckt sky130_fd_pr__pfet_01v8_A6MZLZ B D S G VSUBS
X0 S G D B sky130_fd_pr__pfet_01v8 ad=0.58 pd=4.58 as=0.58 ps=4.58 w=2 l=0.15
C0 B G 0.24043f
C1 G D 0.02934f
C2 B D 0.14266f
C3 S G 0.02934f
C4 S B 0.14266f
C5 S D 0.32105f
C6 S VSUBS 0.09023f
C7 D VSUBS 0.09023f
C8 G VSUBS 0.11914f
C9 B VSUBS 1.5811f
.ends

.subckt sky130_fd_pr__nfet_01v8_MH3LLV B D S G
X0 S G D B sky130_fd_pr__nfet_01v8 ad=0.29 pd=2.58 as=0.29 ps=2.58 w=1 l=0.15
C0 G D 0.02545f
C1 D S 0.16211f
C2 G S 0.02545f
C3 S B 0.1317f
C4 D B 0.1317f
C5 G B 0.34289f
.ends

.subckt tmux_2to1 Y vdd XM5/G A B S vss
XXM1 vdd vdd XM5/G S vss sky130_fd_pr__pfet_01v8_A6MZLZ
XXM2 vss vss XM5/G S sky130_fd_pr__nfet_01v8_MH3LLV
XXM3 vdd A Y S vss sky130_fd_pr__pfet_01v8_A6MZLZ
XXM4 vss A Y XM5/G sky130_fd_pr__nfet_01v8_MH3LLV
XXM5 vdd Y B XM5/G vss sky130_fd_pr__pfet_01v8_A6MZLZ
XXM6 vss Y B S sky130_fd_pr__nfet_01v8_MH3LLV
C0 A S 0.09932f
C1 vdd Y 0.18933f
C2 vdd XM5/G 0.17343f
C3 vdd B 0.11322f
C4 vdd S 0.27839f
C5 Y XM5/G 0.31571f
C6 Y B 0.03022f
C7 A vdd 0.05809f
C8 Y S 0.13093f
C9 B XM5/G 0.09611f
C10 S XM5/G 0.4752f
C11 A Y 0.03022f
C12 S B 0.0426f
C13 A XM5/G 0.66126f
C14 B vss 0.39578f
C15 S vss 1.22376f
C16 Y vss 0.38976f
C17 XM5/G vss 0.68597f
C18 vdd vss 4.09633f
C19 A vss 0.18036f
.ends

.subckt sky130_fd_pr__res_generic_m1_SPQYYJ R1 R2 m1_n100_n100# VSUBS
R0 R1 R2 sky130_fd_pr__res_generic_m1 w=1 l=1
C0 R2 VSUBS 0.07051f
C1 R1 VSUBS 0.07051f
C2 m1_n100_n100# VSUBS 0.10692f
.ends

.subckt inv vin vdd vout vss
XXMn vss vss vout vin sky130_fd_pr__nfet_01v8_MH3LLV
XXMp vdd vdd vout vin vss sky130_fd_pr__pfet_01v8_A6MZLZ
C0 vin vout 0.12658f
C1 vdd vin 0.13776f
C2 vdd vout 0.11998f
C3 vin vss 0.56678f
C4 vout vss 0.40687f
C5 vdd vss 1.84972f
.ends

.subckt buffer in out vdd inv_1/vin vss
Xinv_0 in vdd inv_1/vin vss inv
Xinv_1 inv_1/vin vdd out vss inv
C0 vdd inv_1/vin 0.16476f
C1 vdd in 0.01965f
C2 out vdd 0.00589f
C3 in inv_1/vin 0.01628f
C4 out inv_1/vin 0.0071f
C5 inv_1/vin vss 0.60193f
C6 out vss 0.3255f
C7 in vss 0.41789f
C8 vdd vss 3.06334f
.ends

.subckt tmux_7therm_to_3bin d0 d1 d2 d3 d4 d5 d6 q0 q1 q2 buffer_7/inv_1/vin buffer_3/inv_1/vin
+ buffer_2/out buffer_8/inv_1/vin buffer_4/inv_1/vin buffer_0/inv_1/vin buffer_6/out
+ R1/R2 buffer_9/inv_1/vin buffer_0/out buffer_5/inv_1/vin buffer_5/out buffer_1/inv_1/vin
+ tmux_2to1_0/XM5/G tmux_2to1_3/B tmux_2to1_1/XM5/G tmux_2to1_3/A tmux_2to1_2/XM5/G
+ tmux_2to1_3/XM5/G R1/R1 buffer_6/inv_1/vin buffer_2/inv_1/vin R1/m1_n100_n100# buffer_1/out
+ buffer_8/in vdd vss buffer_7/in buffer_4/out
Xtmux_2to1_1 buffer_8/in vdd tmux_2to1_1/XM5/G buffer_1/out buffer_5/out R1/R1 vss
+ tmux_2to1
Xtmux_2to1_2 tmux_2to1_3/B vdd tmux_2to1_2/XM5/G buffer_2/out buffer_6/out R1/R1 vss
+ tmux_2to1
Xtmux_2to1_3 buffer_7/in vdd tmux_2to1_3/XM5/G tmux_2to1_3/A tmux_2to1_3/B buffer_8/in
+ vss tmux_2to1
XR1 R1/R1 R1/R2 R1/m1_n100_n100# vss sky130_fd_pr__res_generic_m1_SPQYYJ
Xbuffer_0 d0 buffer_0/out vdd buffer_0/inv_1/vin vss buffer
Xbuffer_1 d1 buffer_1/out vdd buffer_1/inv_1/vin vss buffer
Xbuffer_2 d2 buffer_2/out vdd buffer_2/inv_1/vin vss buffer
Xbuffer_3 d3 R1/R2 vdd buffer_3/inv_1/vin vss buffer
Xbuffer_4 d4 buffer_4/out vdd buffer_4/inv_1/vin vss buffer
Xbuffer_5 d5 buffer_5/out vdd buffer_5/inv_1/vin vss buffer
Xbuffer_6 d6 buffer_6/out vdd buffer_6/inv_1/vin vss buffer
Xbuffer_7 buffer_7/in q0 vdd buffer_7/inv_1/vin vss buffer
Xbuffer_8 buffer_8/in q1 vdd buffer_8/inv_1/vin vss buffer
Xbuffer_9 R1/R1 q2 vdd buffer_9/inv_1/vin vss buffer
Xtmux_2to1_0 tmux_2to1_3/A vdd tmux_2to1_0/XM5/G buffer_0/out buffer_4/out R1/R1 vss
+ tmux_2to1
C0 buffer_4/inv_1/vin buffer_4/out 0.0079f
C1 buffer_4/inv_1/vin buffer_5/out 0
C2 q2 tmux_2to1_3/B 0
C3 tmux_2to1_3/A buffer_7/inv_1/vin 0
C4 buffer_0/out buffer_7/in 0
C5 buffer_4/out buffer_7/inv_1/vin 0.00238f
C6 buffer_8/in buffer_7/in 0.24628f
C7 tmux_2to1_3/A d0 0
C8 vdd buffer_5/inv_1/vin 0.32846f
C9 tmux_2to1_3/A tmux_2to1_3/B 0.0101f
C10 buffer_4/out tmux_2to1_3/B 0.27941f
C11 buffer_5/out tmux_2to1_3/B 0.16421f
C12 buffer_9/inv_1/vin buffer_8/inv_1/vin 0.00438f
C13 tmux_2to1_3/A buffer_4/out 0.60354f
C14 tmux_2to1_3/A buffer_5/out 0.00456f
C15 vdd buffer_9/inv_1/vin 0.03021f
C16 buffer_4/out buffer_5/out 1.96436f
C17 tmux_2to1_3/B q1 0
C18 tmux_2to1_0/XM5/G R1/R1 0.0674f
C19 tmux_2to1_2/XM5/G R1/R1 0.26532f
C20 buffer_2/out tmux_2to1_2/XM5/G 0.14365f
C21 vdd R1/R1 2.2016f
C22 vdd d1 0.07265f
C23 buffer_0/inv_1/vin R1/R1 0.01886f
C24 vdd buffer_2/out 0.64599f
C25 buffer_2/inv_1/vin tmux_2to1_3/B 0
C26 vdd R1/m1_n100_n100# 0.01544f
C27 buffer_7/in buffer_7/inv_1/vin 0.00796f
C28 buffer_1/out tmux_2to1_1/XM5/G 0.18587f
C29 buffer_0/out tmux_2to1_0/XM5/G 0.18135f
C30 vdd d6 0.07265f
C31 buffer_8/in buffer_8/inv_1/vin 0.01384f
C32 vdd d4 0.07265f
C33 vdd d5 0.07265f
C34 buffer_4/out R1/R2 0.00232f
C35 buffer_5/out R1/R2 0.01212f
C36 buffer_7/in tmux_2to1_3/B 0.20877f
C37 buffer_0/out vdd 0.83616f
C38 buffer_0/out buffer_0/inv_1/vin 0.00873f
C39 tmux_2to1_3/XM5/G R1/R1 0
C40 buffer_8/in vdd 0.52301f
C41 tmux_2to1_3/A buffer_7/in 0.38438f
C42 buffer_7/in buffer_4/out 0.04488f
C43 buffer_7/in buffer_5/out 0.00264f
C44 buffer_5/inv_1/vin buffer_6/out 0
C45 buffer_8/in tmux_2to1_3/XM5/G 0.34642f
C46 buffer_2/inv_1/vin buffer_1/inv_1/vin 0.00438f
C47 buffer_7/in q1 0
C48 buffer_4/inv_1/vin vdd 0.32846f
C49 tmux_2to1_3/A q0 0
C50 buffer_8/inv_1/vin buffer_7/inv_1/vin 0.00435f
C51 buffer_9/inv_1/vin buffer_6/out 0.00222f
C52 buffer_8/inv_1/vin tmux_2to1_3/B 0.00974f
C53 d0 tmux_2to1_0/XM5/G 0
C54 vdd buffer_7/inv_1/vin 0.02382f
C55 tmux_2to1_2/XM5/G tmux_2to1_3/B 0.03416f
C56 buffer_3/inv_1/vin R1/R1 0.00894f
C57 vdd d0 0.0683f
C58 vdd tmux_2to1_3/B 1.44834f
C59 buffer_6/out R1/R1 0.20693f
C60 vdd q2 0.01294f
C61 tmux_2to1_3/A tmux_2to1_0/XM5/G 0.08101f
C62 buffer_2/out buffer_6/out 0.01539f
C63 buffer_3/inv_1/vin R1/m1_n100_n100# 0.00103f
C64 buffer_5/out buffer_8/inv_1/vin 0
C65 R1/m1_n100_n100# buffer_6/out 0
C66 buffer_4/out tmux_2to1_0/XM5/G 0.02654f
C67 buffer_4/out tmux_2to1_2/XM5/G 0.07683f
C68 buffer_5/out tmux_2to1_2/XM5/G 0.09828f
C69 d6 buffer_6/out 0.00132f
C70 tmux_2to1_3/A vdd 0.31099f
C71 tmux_2to1_3/A buffer_0/inv_1/vin 0
C72 vdd buffer_4/out 1.78677f
C73 vdd buffer_5/out 1.96257f
C74 tmux_2to1_3/XM5/G tmux_2to1_3/B 0.0457f
C75 buffer_1/out R1/R1 0.22519f
C76 buffer_1/out d1 0.00148f
C77 vdd d3 0.07265f
C78 q0 buffer_7/in 0
C79 tmux_2to1_3/A tmux_2to1_3/XM5/G 0.04146f
C80 vdd q1 0.01294f
C81 buffer_4/out tmux_2to1_3/XM5/G 0.04713f
C82 buffer_5/out tmux_2to1_3/XM5/G 0.01262f
C83 tmux_2to1_1/XM5/G R1/R1 0.13419f
C84 vdd buffer_1/inv_1/vin 0.32649f
C85 buffer_1/inv_1/vin buffer_0/inv_1/vin 0.00435f
C86 buffer_8/in buffer_1/out 0.06403f
C87 vdd R1/R2 0.32828f
C88 vdd buffer_2/inv_1/vin 0.32649f
C89 buffer_7/in buffer_8/inv_1/vin 0
C90 buffer_7/in tmux_2to1_0/XM5/G 0.00597f
C91 R1/R1 d2 0.00119f
C92 d1 d2 0.00438f
C93 buffer_4/inv_1/vin buffer_3/inv_1/vin 0.00438f
C94 buffer_4/inv_1/vin buffer_6/out 0
C95 buffer_2/out d2 0
C96 buffer_8/in tmux_2to1_1/XM5/G 0.12457f
C97 vdd buffer_6/inv_1/vin 0.32835f
C98 vdd buffer_7/in 0.23539f
C99 buffer_6/out tmux_2to1_3/B 0.18281f
C100 buffer_7/in tmux_2to1_3/XM5/G 0.01403f
C101 buffer_4/out buffer_3/inv_1/vin 0
C102 buffer_3/inv_1/vin buffer_5/out 0
C103 q0 vdd 0.01294f
C104 buffer_4/out buffer_6/out 1.41966f
C105 buffer_5/out buffer_6/out 0.48773f
C106 buffer_1/out tmux_2to1_3/B 0
C107 tmux_2to1_3/A buffer_1/out 0
C108 buffer_9/inv_1/vin R1/R1 0.00349f
C109 vdd buffer_8/inv_1/vin 0.02538f
C110 vdd tmux_2to1_0/XM5/G 0.05854f
C111 vdd tmux_2to1_2/XM5/G 0.05427f
C112 tmux_2to1_1/XM5/G tmux_2to1_3/B 0
C113 buffer_1/out buffer_4/out 0.00456f
C114 buffer_1/out buffer_5/out 0.05669f
C115 tmux_2to1_0/XM5/G buffer_0/inv_1/vin 0
C116 R1/R2 buffer_6/out 0.00154f
C117 vdd buffer_0/inv_1/vin 0.32203f
C118 tmux_2to1_3/A tmux_2to1_1/XM5/G 0
C119 buffer_3/inv_1/vin buffer_2/inv_1/vin 0.00435f
C120 d2 tmux_2to1_3/B 0
C121 d1 R1/R1 0
C122 buffer_4/out tmux_2to1_1/XM5/G 0.02598f
C123 buffer_5/out tmux_2to1_1/XM5/G 0.02579f
C124 buffer_2/out R1/R1 0.2789f
C125 R1/m1_n100_n100# R1/R1 0.04565f
C126 buffer_6/inv_1/vin buffer_6/out 0.00786f
C127 buffer_1/out buffer_1/inv_1/vin 0.0086f
C128 vdd tmux_2to1_3/XM5/G 0.0495f
C129 buffer_0/out R1/R1 0.11396f
C130 buffer_4/inv_1/vin buffer_5/inv_1/vin 0.00435f
C131 buffer_8/in R1/R1 0.07792f
C132 buffer_8/in d1 0
C133 d5 d6 0.00438f
C134 d4 d5 0.00435f
C135 d3 d2 0.00435f
C136 buffer_1/out buffer_7/in 0
C137 buffer_7/in tmux_2to1_1/XM5/G 0
C138 buffer_5/out buffer_5/inv_1/vin 0.00827f
C139 buffer_9/inv_1/vin tmux_2to1_3/B 0.00176f
C140 tmux_2to1_2/XM5/G buffer_6/out 0.02333f
C141 vdd buffer_3/inv_1/vin 0.32836f
C142 vdd buffer_6/out 3.00774f
C143 d0 d1 0.00435f
C144 d0 R1/R1 0
C145 R1/R1 tmux_2to1_3/B 0.24354f
C146 q2 R1/R1 0
C147 buffer_2/out tmux_2to1_3/B 0.04026f
C148 tmux_2to1_3/A R1/R1 0.0222f
C149 buffer_4/out R1/R1 0.26729f
C150 buffer_1/out vdd 0.83708f
C151 buffer_5/out R1/R1 0.55887f
C152 buffer_0/out d0 0.0015f
C153 buffer_4/out buffer_2/out 0.0018f
C154 buffer_5/out buffer_2/out 0.05213f
C155 buffer_8/in tmux_2to1_3/B 0.28179f
C156 buffer_4/out R1/m1_n100_n100# 0.00131f
C157 buffer_5/out R1/m1_n100_n100# 0.01185f
C158 tmux_2to1_0/XM5/G tmux_2to1_1/XM5/G 0.00433f
C159 tmux_2to1_2/XM5/G tmux_2to1_1/XM5/G 0.00433f
C160 buffer_6/inv_1/vin buffer_5/inv_1/vin 0.00438f
C161 d4 buffer_4/out 0.00133f
C162 d5 buffer_5/out 0.00133f
C163 tmux_2to1_3/A buffer_0/out 0.05826f
C164 d3 R1/R1 0
C165 vdd tmux_2to1_1/XM5/G 0.04059f
C166 tmux_2to1_3/A buffer_8/in 0.1382f
C167 buffer_0/out buffer_4/out 0.0414f
C168 buffer_8/in buffer_4/out 0.18314f
C169 buffer_1/out tmux_2to1_3/XM5/G 0
C170 buffer_8/in buffer_5/out 0.33947f
C171 buffer_1/inv_1/vin R1/R1 0.02062f
C172 d4 d3 0.00438f
C173 R1/R2 R1/R1 0.03366f
C174 vdd d2 0.07265f
C175 R1/R2 R1/m1_n100_n100# 0.0386f
C176 buffer_2/inv_1/vin R1/R1 0.02182f
C177 buffer_2/inv_1/vin buffer_2/out 0.00356f
C178 buffer_8/in q1 0
C179 buffer_8/in buffer_1/inv_1/vin 0
C180 buffer_7/in R1/R1 0.00295f
C181 buffer_3/inv_1/vin buffer_6/out 0
C182 tmux_2to1_3/A vss 0.7137f
C183 tmux_2to1_0/XM5/G vss 0.55203f
C184 buffer_9/inv_1/vin vss 0.83718f
C185 q2 vss 0.40182f
C186 buffer_8/inv_1/vin vss 0.83586f
C187 q1 vss 0.40182f
C188 buffer_7/inv_1/vin vss 0.83588f
C189 q0 vss 0.40182f
C190 buffer_6/inv_1/vin vss 0.54713f
C191 buffer_6/out vss 1.08087f
C192 d6 vss 0.42023f
C193 buffer_5/inv_1/vin vss 0.54811f
C194 buffer_5/out vss 1.1426f
C195 d5 vss 0.41693f
C196 vdd vss 81.61826f
C197 buffer_4/inv_1/vin vss 0.54811f
C198 buffer_4/out vss 1.13891f
C199 d4 vss 0.41693f
C200 buffer_3/inv_1/vin vss 0.54811f
C201 R1/R2 vss 0.24596f
C202 d3 vss 0.41694f
C203 buffer_2/inv_1/vin vss 0.55981f
C204 buffer_2/out vss 0.38944f
C205 d2 vss 0.41693f
C206 buffer_1/inv_1/vin vss 0.55981f
C207 buffer_1/out vss 0.403f
C208 d1 vss 0.41693f
C209 buffer_0/inv_1/vin vss 0.55981f
C210 buffer_0/out vss 0.40723f
C211 d0 vss 0.42457f
C212 R1/m1_n100_n100# vss 0.11104f
C213 buffer_8/in vss 1.94693f
C214 buffer_7/in vss 1.30882f
C215 tmux_2to1_3/XM5/G vss 0.55181f
C216 R1/R1 vss 4.97015f
C217 tmux_2to1_3/B vss 1.00035f
C218 tmux_2to1_2/XM5/G vss 0.54992f
C219 tmux_2to1_1/XM5/G vss 0.55178f
.ends

.subckt flashADC_3bit dout0 dout1 dout2 tmux_7therm_to_3bin_0/buffer_1/out vbias_generation_0/bias_n
+ tmux_7therm_to_3bin_0/buffer_6/inv_1/vin tmux_7therm_to_3bin_0/buffer_2/inv_1/vin
+ comp_p_3/latch_left comp_p_5/tail tmux_7therm_to_3bin_0/buffer_8/in comp_p_2/tail
+ comp_p_4/latch_left tmux_7therm_to_3bin_0/buffer_7/in comp_p_5/latch_left vbias_generation_0/XR_bias_2/R2
+ tmux_7therm_to_3bin_0/R1/m1_n100_n100# tmux_7therm_to_3bin_0/buffer_7/inv_1/vin
+ tmux_7therm_to_3bin_0/buffer_2/out tmux_7therm_to_3bin_0/buffer_3/inv_1/vin comp_p_6/latch_left
+ comp_p_1/out_left comp_p_6/tail comp_p_0/latch_right comp_p_1/latch_right comp_p_2/latch_right
+ comp_p_3/latch_right comp_p_3/tail comp_p_4/latch_right comp_p_5/latch_right tmux_7therm_to_3bin_0/buffer_8/inv_1/vin
+ tmux_7therm_to_3bin_0/buffer_6/out comp_p_4/out_left comp_p_4/vinn comp_p_6/latch_right
+ comp_p_0/tail tmux_7therm_to_3bin_0/buffer_4/inv_1/vin tmux_7therm_to_3bin_0/buffer_0/inv_1/vin
+ tmux_7therm_to_3bin_0/R1/R2 comp_p_2/latch_left vbias_generation_0/XR_bias_4/R1
+ tmux_7therm_to_3bin_0/tmux_2to1_0/XM5/G d1 comp_p_3/vinn tmux_7therm_to_3bin_0/tmux_2to1_1/XM5/G
+ comp_p_2/out_left tmux_7therm_to_3bin_0/buffer_0/out comp_p_0/out_left tmux_7therm_to_3bin_0/tmux_2to1_2/XM5/G
+ tmux_7therm_to_3bin_0/tmux_2to1_3/XM5/G comp_p_6/vinn tmux_7therm_to_3bin_0/buffer_5/out
+ d2 tmux_7therm_to_3bin_0/buffer_9/inv_1/vin comp_p_4/tail tmux_7therm_to_3bin_0/R1/R1
+ comp_p_0/latch_left tmux_7therm_to_3bin_0/buffer_5/inv_1/vin tmux_7therm_to_3bin_0/buffer_1/inv_1/vin
+ d4 comp_p_5/vinn tmux_7therm_to_3bin_0/tmux_2to1_3/B comp_p_1/tail comp_p_0/vinn
+ vin comp_p_6/out_left tmux_7therm_to_3bin_0/tmux_2to1_3/A comp_p_1/latch_left vdd
+ tmux_7therm_to_3bin_0/buffer_4/out d5 d3 d0 comp_p_1/vinn comp_p_2/vinn vref comp_p_5/out_left
+ vbias_generation_0/XR_bias_3/R2 d6 vss comp_p_3/out_left comp_p_6/vbias_p
Xvbias_generation_0 vbias_generation_0/bias_n vbias_generation_0/XR_bias_2/R2 comp_p_6/vbias_p
+ vbias_generation_0/XR_bias_4/R1 vdd vbias_generation_0/XR_bias_3/R2 comp_p_6/vbias_p
+ vss vbias_generation
Xres_ladder_vref_0 comp_p_2/vinn comp_p_5/vinn comp_p_6/vinn vref comp_p_3/vinn comp_p_0/vinn
+ comp_p_1/vinn comp_p_4/vinn vss res_ladder_vref
Xcomp_p_1 vin comp_p_1/vinn comp_p_6/vbias_p vdd comp_p_1/tail d0 comp_p_1/latch_right
+ comp_p_1/out_left comp_p_1/latch_left vss comp_p
Xcomp_p_0 vin comp_p_0/vinn comp_p_6/vbias_p vdd comp_p_0/tail d1 comp_p_0/latch_right
+ comp_p_0/out_left comp_p_0/latch_left vss comp_p
Xcomp_p_2 vin comp_p_2/vinn comp_p_6/vbias_p vdd comp_p_2/tail d2 comp_p_2/latch_right
+ comp_p_2/out_left comp_p_2/latch_left vss comp_p
Xcomp_p_3 vin comp_p_3/vinn comp_p_6/vbias_p vdd comp_p_3/tail d3 comp_p_3/latch_right
+ comp_p_3/out_left comp_p_3/latch_left vss comp_p
Xcomp_p_4 vin comp_p_4/vinn comp_p_6/vbias_p vdd comp_p_4/tail d4 comp_p_4/latch_right
+ comp_p_4/out_left comp_p_4/latch_left vss comp_p
Xcomp_p_5 vin comp_p_5/vinn comp_p_6/vbias_p vdd comp_p_5/tail d5 comp_p_5/latch_right
+ comp_p_5/out_left comp_p_5/latch_left vss comp_p
Xcomp_p_6 vin comp_p_6/vinn comp_p_6/vbias_p vdd comp_p_6/tail d6 comp_p_6/latch_right
+ comp_p_6/out_left comp_p_6/latch_left vss comp_p
Xtmux_7therm_to_3bin_0 d0 d1 d2 d3 d4 d5 d6 dout0 dout1 dout2 tmux_7therm_to_3bin_0/buffer_7/inv_1/vin
+ tmux_7therm_to_3bin_0/buffer_3/inv_1/vin tmux_7therm_to_3bin_0/buffer_2/out tmux_7therm_to_3bin_0/buffer_8/inv_1/vin
+ tmux_7therm_to_3bin_0/buffer_4/inv_1/vin tmux_7therm_to_3bin_0/buffer_0/inv_1/vin
+ tmux_7therm_to_3bin_0/buffer_6/out tmux_7therm_to_3bin_0/R1/R2 tmux_7therm_to_3bin_0/buffer_9/inv_1/vin
+ tmux_7therm_to_3bin_0/buffer_0/out tmux_7therm_to_3bin_0/buffer_5/inv_1/vin tmux_7therm_to_3bin_0/buffer_5/out
+ tmux_7therm_to_3bin_0/buffer_1/inv_1/vin tmux_7therm_to_3bin_0/tmux_2to1_0/XM5/G
+ tmux_7therm_to_3bin_0/tmux_2to1_3/B tmux_7therm_to_3bin_0/tmux_2to1_1/XM5/G tmux_7therm_to_3bin_0/tmux_2to1_3/A
+ tmux_7therm_to_3bin_0/tmux_2to1_2/XM5/G tmux_7therm_to_3bin_0/tmux_2to1_3/XM5/G
+ tmux_7therm_to_3bin_0/R1/R1 tmux_7therm_to_3bin_0/buffer_6/inv_1/vin tmux_7therm_to_3bin_0/buffer_2/inv_1/vin
+ tmux_7therm_to_3bin_0/R1/m1_n100_n100# tmux_7therm_to_3bin_0/buffer_1/out tmux_7therm_to_3bin_0/buffer_8/in
+ vdd vss tmux_7therm_to_3bin_0/buffer_7/in tmux_7therm_to_3bin_0/buffer_4/out tmux_7therm_to_3bin
C0 d4 d2 0.04942f
C1 comp_p_4/vinn vdd 0.03662f
C2 comp_p_4/latch_left vin 0.00664f
C3 d5 comp_p_1/out_left 0
C4 vbias_generation_0/bias_n comp_p_6/latch_right 0
C5 d4 comp_p_6/vbias_p 0.37293f
C6 d4 tmux_7therm_to_3bin_0/buffer_0/inv_1/vin 0
C7 comp_p_1/vinn comp_p_0/vinn 0.94729f
C8 comp_p_1/vinn comp_p_1/out_left 0.19389f
C9 d2 comp_p_3/latch_right 0.09517f
C10 tmux_7therm_to_3bin_0/buffer_6/out d6 0
C11 comp_p_6/vbias_p comp_p_0/latch_left 0.37827f
C12 d0 comp_p_1/out_left -0
C13 d3 vin 0.00158f
C14 d5 comp_p_5/out_left 0
C15 d4 tmux_7therm_to_3bin_0/buffer_2/out 0
C16 comp_p_5/latch_right comp_p_6/latch_right 0.00925f
C17 d4 tmux_7therm_to_3bin_0/buffer_4/inv_1/vin 0.00318f
C18 comp_p_1/latch_left d2 0
C19 vbias_generation_0/bias_n comp_p_6/out_left 0.00925f
C20 vdd comp_p_6/latch_right 1.95544f
C21 comp_p_5/tail d6 0
C22 d5 d2 0.04508f
C23 d1 tmux_7therm_to_3bin_0/buffer_2/inv_1/vin 0.00173f
C24 d6 comp_p_5/latch_left 0.00183f
C25 comp_p_2/vinn vdd 0.04727f
C26 d6 tmux_7therm_to_3bin_0/buffer_2/inv_1/vin 0
C27 vdd comp_p_2/out_left 0.02487f
C28 comp_p_0/latch_left comp_p_2/latch_left 0.01494f
C29 d5 tmux_7therm_to_3bin_0/buffer_0/inv_1/vin 0
C30 d5 comp_p_6/vbias_p 0
C31 d2 comp_p_1/vinn 0.00152f
C32 comp_p_3/vinn comp_p_3/latch_left 0.00666f
C33 comp_p_6/vbias_p comp_p_1/vinn 0.38594f
C34 d0 d2 0.03281f
C35 comp_p_4/latch_right comp_p_5/out_left 0
C36 comp_p_6/vbias_p vbias_generation_0/XR_bias_4/R1 0.02724f
C37 d4 comp_p_6/latch_left 0.06068f
C38 vdd comp_p_0/vinn 0.01961f
C39 d0 comp_p_6/vbias_p 0.00465f
C40 d0 tmux_7therm_to_3bin_0/buffer_0/inv_1/vin 0.00746f
C41 vdd comp_p_6/out_left 1.67021f
C42 vdd comp_p_1/out_left 1.79183f
C43 d5 tmux_7therm_to_3bin_0/buffer_4/inv_1/vin 0
C44 comp_p_5/vinn vin 0.66275f
C45 d4 comp_p_3/latch_right 0.00133f
C46 vbias_generation_0/bias_n comp_p_6/vbias_p 0
C47 comp_p_4/latch_right comp_p_6/vbias_p 0.40389f
C48 d3 comp_p_1/tail 0
C49 tmux_7therm_to_3bin_0/R1/R1 tmux_7therm_to_3bin_0/buffer_1/inv_1/vin 0
C50 comp_p_2/latch_right comp_p_1/vinn 0.00771f
C51 comp_p_1/vinn comp_p_2/latch_left 0.01672f
C52 d4 comp_p_1/latch_left 0
C53 comp_p_6/vinn comp_p_4/out_left 0.04948f
C54 comp_p_5/out_left vdd 1.8042f
C55 vbias_generation_0/XR_bias_3/R2 vin 0.08368f
C56 d4 d5 4.51321f
C57 d1 comp_p_3/vinn 0
C58 d6 comp_p_3/vinn 0
C59 comp_p_4/vinn comp_p_4/out_left 0.02516f
C60 d1 tmux_7therm_to_3bin_0/buffer_1/inv_1/vin 0.00482f
C61 d6 tmux_7therm_to_3bin_0/buffer_1/inv_1/vin 0
C62 d2 vdd 1.1602f
C63 d3 tmux_7therm_to_3bin_0/buffer_3/inv_1/vin 0.00238f
C64 d4 comp_p_1/vinn 0
C65 comp_p_6/vbias_p vdd 12.39904f
C66 vdd tmux_7therm_to_3bin_0/buffer_0/inv_1/vin 0.00196f
C67 d5 comp_p_3/latch_right 0.00185f
C68 d4 d0 0.03391f
C69 comp_p_4/vinn comp_p_3/vinn 0
C70 comp_p_1/vinn comp_p_0/latch_left 0.15776f
C71 d4 vbias_generation_0/bias_n 0.00802f
C72 d4 comp_p_4/latch_right 0
C73 comp_p_1/latch_left d5 0
C74 vbias_generation_0/XR_bias_2/R2 vin 0.50675f
C75 vbias_generation_0/bias_n comp_p_6/latch_left 0.01259f
C76 comp_p_2/latch_right vdd 0.00592f
C77 tmux_7therm_to_3bin_0/buffer_4/inv_1/vin vdd 0.00104f
C78 vdd comp_p_2/latch_left 0
C79 d1 tmux_7therm_to_3bin_0/buffer_0/out 0
C80 comp_p_1/latch_left comp_p_1/vinn 0.0067f
C81 comp_p_1/latch_right d1 0.09536f
C82 tmux_7therm_to_3bin_0/buffer_0/out d6 0
C83 comp_p_1/latch_right d6 0.00271f
C84 vref vdd 0
C85 comp_p_2/out_left comp_p_4/out_left 0.01584f
C86 d5 comp_p_1/vinn 0
C87 d4 comp_p_5/latch_right 0.06539f
C88 d5 d0 0.04762f
C89 d6 comp_p_3/out_left 0
C90 d6 tmux_7therm_to_3bin_0/buffer_4/out 0
C91 comp_p_2/vinn comp_p_3/vinn 0.31389f
C92 comp_p_3/vinn comp_p_2/out_left 0.01462f
C93 d4 vdd 1.46229f
C94 d2 tmux_7therm_to_3bin_0/buffer_2/inv_1/vin 0.00483f
C95 comp_p_6/latch_left vdd 2.04557f
C96 comp_p_0/latch_left vdd 0
C97 comp_p_2/vinn comp_p_2/tail 0
C98 comp_p_3/latch_right vdd 1.95698f
C99 vin comp_p_0/latch_right 0.21598f
C100 d1 vin 0.63586f
C101 d6 vin 0.01178f
C102 comp_p_3/vinn comp_p_0/vinn 0.53686f
C103 comp_p_4/latch_right vbias_generation_0/XR_bias_4/R1 0
C104 comp_p_6/vinn vin 1.01745f
C105 comp_p_1/latch_left vdd 2.04615f
C106 d4 tmux_7therm_to_3bin_0/buffer_6/out 0.013f
C107 comp_p_4/vinn vin 0.52728f
C108 comp_p_4/latch_right vbias_generation_0/bias_n 0
C109 d5 vdd 2.33637f
C110 comp_p_5/vinn comp_p_4/tail 0.10856f
C111 vbias_generation_0/XR_bias_3/R2 comp_p_6/tail 0
C112 comp_p_1/vinn vdd 1.45687f
C113 comp_p_6/vbias_p comp_p_4/out_left 0.69034f
C114 comp_p_2/vinn comp_p_3/out_left 0
C115 d4 comp_p_5/tail 0.00264f
C116 comp_p_3/tail d6 0
C117 d0 vdd 2.71992f
C118 d4 comp_p_5/latch_left 0.06545f
C119 d4 tmux_7therm_to_3bin_0/buffer_2/inv_1/vin 0
C120 d2 comp_p_3/vinn 0.24742f
C121 comp_p_6/latch_left comp_p_5/latch_left 0.00925f
C122 d2 tmux_7therm_to_3bin_0/buffer_1/inv_1/vin 0.00171f
C123 comp_p_6/vbias_p comp_p_3/vinn 0.38072f
C124 d1 comp_p_1/tail 0.00457f
C125 d6 comp_p_1/tail 0
C126 vbias_generation_0/bias_n vdd 0.00188f
C127 comp_p_4/latch_right vdd 0.00589f
C128 comp_p_2/vinn vin 0.52215f
C129 d2 comp_p_2/tail -0.00224f
C130 vin comp_p_2/out_left 0.0842f
C131 comp_p_6/vbias_p comp_p_2/tail 0.31443f
C132 comp_p_2/latch_right comp_p_3/vinn 0.17593f
C133 comp_p_3/vinn comp_p_2/latch_left 0.15548f
C134 d4 tmux_7therm_to_3bin_0/buffer_5/out 0.01353f
C135 comp_p_5/latch_right vdd 1.9557f
C136 d6 tmux_7therm_to_3bin_0/buffer_3/inv_1/vin 0
C137 d5 tmux_7therm_to_3bin_0/buffer_2/inv_1/vin 0
C138 vin comp_p_0/vinn 0.81463f
C139 tmux_7therm_to_3bin_0/buffer_0/out d2 0
C140 vin comp_p_6/out_left 0.06197f
C141 comp_p_1/latch_right d2 0.00123f
C142 vin comp_p_1/out_left 0.07139f
C143 comp_p_3/out_left comp_p_5/out_left 0.01584f
C144 d4 comp_p_3/vinn 0
C145 d2 comp_p_3/out_left 0.67197f
C146 comp_p_5/vinn comp_p_4/latch_left 0.16266f
C147 d4 tmux_7therm_to_3bin_0/buffer_1/inv_1/vin 0
C148 comp_p_6/vbias_p comp_p_3/out_left -0.06014f
C149 comp_p_5/out_left vin 0.06043f
C150 comp_p_4/latch_right comp_p_5/latch_left 0.02598f
C151 comp_p_3/vinn comp_p_3/latch_right 0.00805f
C152 d5 tmux_7therm_to_3bin_0/buffer_5/out 0
C153 d3 tmux_7therm_to_3bin_0/R1/R2 0