* NGSPICE file created from tt_um_tinyflash_extracted.ext - technology: sky130A

.subckt sky130_fd_pr__res_xhigh_po_1p41_UKZ7C9 B R1 R2
X0 R1 R2 B sky130_fd_pr__res_xhigh_po_1p41 l=7
C0 R2 R1 0.01325f
C1 R2 B 0.82332f
C2 R1 B 0.82332f
.ends

.subckt sky130_fd_pr__nfet_01v8_lvt_ELBHUY B D S G
X0 S G D B sky130_fd_pr__nfet_01v8_lvt ad=1.45 pd=10.58 as=1.45 ps=10.58 w=5 l=1
C0 G D 0.11229f
C1 S D 0.27388f
C2 S G 0.11229f
C3 S B 0.59197f
C4 D B 0.59197f
C5 G B 0.75059f
.ends

.subckt sky130_fd_pr__pfet_01v8_lvt_VTBKAA B D S G VSUBS
X0 S G D B sky130_fd_pr__pfet_01v8_lvt ad=2.9 pd=20.58 as=2.9 ps=20.58 w=10 l=1
C0 S G 0.21915f
C1 S B 0.634f
C2 D S 0.54671f
C3 B G 0.43443f
C4 D G 0.21915f
C5 D B 0.634f
C6 S VSUBS 0.51455f
C7 D VSUBS 0.51455f
C8 G VSUBS 0.36418f
C9 B VSUBS 5.72384f
.ends

.subckt vbias_generation bias_n vdd XR_bias_2/R2 XR_bias_4/R1 XR_bias_3/R2 bias_p
+ vss
XXR_bias_1 vss XR_bias_2/R2 bias_p sky130_fd_pr__res_xhigh_po_1p41_UKZ7C9
XXR_bias_2 vss XR_bias_3/R2 XR_bias_2/R2 sky130_fd_pr__res_xhigh_po_1p41_UKZ7C9
XXR_bias_3 vss XR_bias_4/R1 XR_bias_3/R2 sky130_fd_pr__res_xhigh_po_1p41_UKZ7C9
XXR_bias_4 vss XR_bias_4/R1 bias_n sky130_fd_pr__res_xhigh_po_1p41_UKZ7C9
XXMn_bias vss bias_n vss bias_n sky130_fd_pr__nfet_01v8_lvt_ELBHUY
XXMp_bias vdd bias_p vdd bias_p vss sky130_fd_pr__pfet_01v8_lvt_VTBKAA
C0 XR_bias_4/R1 XR_bias_3/R2 0
C1 XR_bias_2/R2 bias_p 0.05112f
C2 XR_bias_2/R2 vdd 0.01866f
C3 vdd bias_p 0.22745f
C4 XR_bias_2/R2 XR_bias_4/R1 0.06887f
C5 XR_bias_2/R2 XR_bias_3/R2 0
C6 XR_bias_4/R1 bias_p 0
C7 bias_p XR_bias_3/R2 0.06932f
C8 XR_bias_4/R1 bias_n 0
C9 bias_n XR_bias_3/R2 0.06908f
C10 vdd vss 6.78775f
C11 bias_n vss 2.48381f
C12 XR_bias_4/R1 vss 1.63605f
C13 XR_bias_3/R2 vss 1.57785f
C14 XR_bias_2/R2 vss 1.57097f
C15 bias_p vss 1.64123f
.ends

.subckt sky130_fd_pr__res_xhigh_po_5p73_JT48NU B R1 R2
X0 R1 R2 B sky130_fd_pr__res_xhigh_po_5p73 l=5.73
C0 R2 R1 0.06813f
C1 R2 B 1.74197f
C2 R1 B 1.74197f
.ends

.subckt res_ladder_vref ref2 ref5 ref6 vref ref3 ref1 ref0 ref4 vss
XXR1 vss ref6 vref sky130_fd_pr__res_xhigh_po_5p73_JT48NU
XXR2 vss ref6 vref sky130_fd_pr__res_xhigh_po_5p73_JT48NU
XXR10 vss ref0 vss sky130_fd_pr__res_xhigh_po_5p73_JT48NU
XXR3 vss ref6 ref5 sky130_fd_pr__res_xhigh_po_5p73_JT48NU
XXR4 vss ref4 ref5 sky130_fd_pr__res_xhigh_po_5p73_JT48NU
XXR5 vss ref4 ref3 sky130_fd_pr__res_xhigh_po_5p73_JT48NU
XXR6 vss ref2 ref3 sky130_fd_pr__res_xhigh_po_5p73_JT48NU
XXR7 vss ref2 ref1 sky130_fd_pr__res_xhigh_po_5p73_JT48NU
XXR8 vss ref0 ref1 sky130_fd_pr__res_xhigh_po_5p73_JT48NU
XXR9 vss ref0 vss sky130_fd_pr__res_xhigh_po_5p73_JT48NU
C0 ref6 ref5 0
C1 ref2 ref4 0.06887f
C2 ref3 ref4 0
C3 ref6 ref4 0.06887f
C4 ref2 ref3 0
C5 ref2 ref0 0.06887f
C6 ref5 ref4 0
C7 vref ref6 0.16095f
C8 ref2 ref1 0
C9 vref ref5 0.06887f
C10 ref3 ref1 0.06887f
C11 ref3 ref5 0.06887f
C12 ref1 ref0 0
C13 ref1 vss 3.4889f
C14 ref2 vss 3.42003f
C15 ref3 vss 3.42003f
C16 ref4 vss 3.42003f
C17 ref5 vss 3.42003f
C18 ref6 vss 5.161f
C19 ref0 vss 5.32418f
C20 vref vss 4.57377f
.ends

.subckt sky130_fd_pr__nfet_01v8_lvt_MMMA4V a_n260_n698# a_100_n500# a_n158_n500# a_n100_n588#
X0 a_100_n500# a_n100_n588# a_n158_n500# a_n260_n698# sky130_fd_pr__nfet_01v8_lvt ad=1.45 pd=10.58 as=1.45 ps=10.58 w=5 l=1
C0 a_n158_n500# a_n100_n588# 0.11229f
C1 a_n158_n500# a_100_n500# 0.27388f
C2 a_n100_n588# a_100_n500# 0.11229f
C3 a_100_n500# a_n260_n698# 0.5905f
C4 a_n158_n500# a_n260_n698# 0.5905f
C5 a_n100_n588# a_n260_n698# 0.7183f
.ends

.subckt sky130_fd_pr__pfet_01v8_lvt_5VNMZ8 a_n100_n897# a_100_n800# w_n296_n1019#
+ a_n158_n800# VSUBS
X0 a_100_n800# a_n100_n897# a_n158_n800# w_n296_n1019# sky130_fd_pr__pfet_01v8_lvt ad=2.32 pd=16.58 as=2.32 ps=16.58 w=8 l=1
C0 a_n100_n897# w_n296_n1019# 0.43443f
C1 a_n100_n897# a_n158_n800# 0.17641f
C2 a_100_n800# a_n100_n897# 0.17641f
C3 w_n296_n1019# a_n158_n800# 0.51205f
C4 a_100_n800# w_n296_n1019# 0.51205f
C5 a_100_n800# a_n158_n800# 0.43758f
C6 a_100_n800# VSUBS 0.41369f
C7 a_n158_n800# VSUBS 0.41369f
C8 a_n100_n897# VSUBS 0.36418f
C9 w_n296_n1019# VSUBS 4.82082f
.ends

.subckt sky130_fd_pr__nfet_01v8_lvt_AHMAL2 a_n260_n574# a_100_n400# a_n158_n400# a_n100_n488#
X0 a_100_n400# a_n100_n488# a_n158_n400# a_n260_n574# sky130_fd_pr__nfet_01v8_lvt ad=1.16 pd=8.58 as=1.16 ps=8.58 w=4 l=1
C0 a_n158_n400# a_n100_n488# 0.09092f
C1 a_n158_n400# a_100_n400# 0.21931f
C2 a_n100_n488# a_100_n400# 0.09092f
C3 a_100_n400# a_n260_n574# 0.48057f
C4 a_n158_n400# a_n260_n574# 0.48057f
C5 a_n100_n488# a_n260_n574# 0.74751f
.ends

.subckt sky130_fd_pr__pfet_01v8_lvt_GUWLND a_n158_n1000# a_n100_n1097# w_n296_n1219#
+ a_100_n1000# VSUBS
X0 a_100_n1000# a_n100_n1097# a_n158_n1000# w_n296_n1219# sky130_fd_pr__pfet_01v8_lvt ad=2.9 pd=20.58 as=2.9 ps=20.58 w=10 l=1
C0 a_n100_n1097# w_n296_n1219# 0.43443f
C1 a_n100_n1097# a_n158_n1000# 0.21915f
C2 a_100_n1000# a_n100_n1097# 0.21915f
C3 w_n296_n1219# a_n158_n1000# 0.634f
C4 a_100_n1000# w_n296_n1219# 0.634f
C5 a_100_n1000# a_n158_n1000# 0.54671f
C6 a_100_n1000# VSUBS 0.51455f
C7 a_n158_n1000# VSUBS 0.51455f
C8 a_n100_n1097# VSUBS 0.36418f
C9 w_n296_n1219# VSUBS 5.72384f
.ends

.subckt comp_p vinp vinn vbias_p vdd tail vout latch_right out_left latch_left vss
XXMn_cs_left vss latch_right vss latch_left sky130_fd_pr__nfet_01v8_lvt_MMMA4V
XXMp_out out_left vdd vdd vout vss sky130_fd_pr__pfet_01v8_lvt_5VNMZ8
XXMn_diode_left1 vss latch_left vss latch_left sky130_fd_pr__nfet_01v8_lvt_AHMAL2
XXMn_cs_right1 vss latch_left vss latch_right sky130_fd_pr__nfet_01v8_lvt_MMMA4V
XXMn_diode_right vss latch_right vss latch_right sky130_fd_pr__nfet_01v8_lvt_AHMAL2
Xsky130_fd_pr__pfet_01v8_lvt_5VNMZ8_0 out_left vdd vdd out_left vss sky130_fd_pr__pfet_01v8_lvt_5VNMZ8
XXMn_out_left vss out_left vss latch_left sky130_fd_pr__nfet_01v8_lvt_MMMA4V
XXMn_out_right vss vout vss latch_right sky130_fd_pr__nfet_01v8_lvt_MMMA4V
XXMp_tail tail vbias_p vdd vdd vss sky130_fd_pr__pfet_01v8_lvt_GUWLND
X0 tail vinn latch_left vdd sky130_fd_pr__pfet_01v8_lvt ad=2.89855 pd=20.57 as=2.89855 ps=20.57 w=9.995 l=0.35
X1 tail vinp latch_right vdd sky130_fd_pr__pfet_01v8_lvt ad=2.89855 pd=20.57 as=2.89855 ps=20.57 w=9.995 l=0.35
X2 tail vinp latch_right vdd sky130_fd_pr__pfet_01v8_lvt ad=2.89855 pd=20.57 as=2.89855 ps=20.57 w=9.995 l=0.35
X3 tail vinp latch_right vdd sky130_fd_pr__pfet_01v8_lvt ad=2.89855 pd=20.57 as=2.89855 ps=20.57 w=9.995 l=0.35
X4 tail vinp latch_right vdd sky130_fd_pr__pfet_01v8_lvt ad=2.89855 pd=20.57 as=2.89855 ps=20.57 w=9.995 l=0.35
X5 tail vinn latch_left vdd sky130_fd_pr__pfet_01v8_lvt ad=2.89855 pd=20.57 as=2.89855 ps=20.57 w=9.995 l=0.35
X6 tail vinn latch_left vdd sky130_fd_pr__pfet_01v8_lvt ad=2.89855 pd=20.57 as=2.89855 ps=20.57 w=9.995 l=0.35
X7 tail vinn latch_left vdd sky130_fd_pr__pfet_01v8_lvt ad=2.89855 pd=20.57 as=2.89855 ps=20.57 w=9.995 l=0.35
C0 vout vinp 0.03655f
C1 vinn latch_right 3.53507f
C2 out_left vdd 2.99708f
C3 latch_left vdd 1.3971f
C4 vbias_p vout 0.14426f
C5 out_left vinp 0.22514f
C6 vdd vinn 2.30474f
C7 latch_left vinp 0.5043f
C8 vbias_p out_left 0.84152f
C9 vbias_p latch_left 0.00103f
C10 vinn vinp 1.25697f
C11 tail latch_right 8.8942f
C12 vbias_p vinn 0.00222f
C13 vdd tail 2.22915f
C14 out_left vout 0.6058f
C15 latch_left vout 0.14014f
C16 tail vinp 2.91757f
C17 vdd latch_right 1.44611f
C18 vout vinn 0.12978f
C19 out_left latch_left 0.73463f
C20 vbias_p tail 0.65167f
C21 latch_right vinp 0.51311f
C22 out_left vinn 0.08183f
C23 latch_left vinn 1.33911f
C24 vbias_p latch_right 0.00109f
C25 vdd vinp 4.26352f
C26 vout tail 0.00803f
C27 vbias_p vdd 2.11961f
C28 vout latch_right 0.72835f
C29 out_left tail 0.00652f
C30 vbias_p vinp 0.03011f
C31 latch_left tail 8.82993f
C32 out_left latch_right 0.1431f
C33 vout vdd 1.62919f
C34 vinn tail 0.82695f
C35 latch_left latch_right 5.15792f
C36 vinp vss 0.4258f
C37 vinn vss 0.50566f
C38 tail vss 1.09774f
C39 vbias_p vss 0.82905f
C40 vdd vss 43.54159f
C41 vout vss 3.2381f
C42 latch_right vss 4.74799f
C43 out_left vss 3.38408f
C44 latch_left vss 5.11722f
.ends

.subckt sky130_fd_pr__pfet_01v8_A6MZLZ B D S G VSUBS
X0 S G D B sky130_fd_pr__pfet_01v8 ad=0.58 pd=4.58 as=0.58 ps=4.58 w=2 l=0.15
C0 S G 0.02934f
C1 S D 0.32105f
C2 S B 0.14266f
C3 G D 0.02934f
C4 G B 0.24043f
C5 D B 0.14266f
C6 S VSUBS 0.09023f
C7 D VSUBS 0.09023f
C8 G VSUBS 0.11914f
C9 B VSUBS 1.5811f
.ends

.subckt sky130_fd_pr__nfet_01v8_MH3LLV B D S G
X0 S G D B sky130_fd_pr__nfet_01v8 ad=0.29 pd=2.58 as=0.29 ps=2.58 w=1 l=0.15
C0 D S 0.16211f
C1 D G 0.02545f
C2 S G 0.02545f
C3 S B 0.1317f
C4 D B 0.1317f
C5 G B 0.34289f
.ends

.subckt tmux_2to1 Y vdd XM5/G A B S vss
XXM1 vdd vdd XM5/G S vss sky130_fd_pr__pfet_01v8_A6MZLZ
XXM2 vss vss XM5/G S sky130_fd_pr__nfet_01v8_MH3LLV
XXM3 vdd A Y S vss sky130_fd_pr__pfet_01v8_A6MZLZ
XXM4 vss A Y XM5/G sky130_fd_pr__nfet_01v8_MH3LLV
XXM5 vdd Y B XM5/G vss sky130_fd_pr__pfet_01v8_A6MZLZ
XXM6 vss Y B S sky130_fd_pr__nfet_01v8_MH3LLV
C0 vdd XM5/G 0.17343f
C1 XM5/G A 0.66126f
C2 XM5/G S 0.4752f
C3 B XM5/G 0.09611f
C4 vdd A 0.05809f
C5 vdd S 0.27839f
C6 XM5/G Y 0.31571f
C7 vdd B 0.11322f
C8 A S 0.09932f
C9 vdd Y 0.18933f
C10 B S 0.0426f
C11 A Y 0.03022f
C12 S Y 0.13093f
C13 B Y 0.03022f
C14 B vss 0.39578f
C15 S vss 1.22376f
C16 Y vss 0.38976f
C17 XM5/G vss 0.68597f
C18 vdd vss 4.09633f
C19 A vss 0.18036f
.ends

.subckt sky130_fd_pr__res_generic_m1_SPQYYJ R1 R2 m1_n100_n100# VSUBS
R0 R1 R2 sky130_fd_pr__res_generic_m1 w=1 l=1
C0 R2 VSUBS 0.07104f
C1 R1 VSUBS 0.07104f
C2 m1_n100_n100# VSUBS 0.10692f
.ends

.subckt inv vin vdd vout vss
XXMn vss vss vout vin sky130_fd_pr__nfet_01v8_MH3LLV
XXMp vdd vdd vout vin vss sky130_fd_pr__pfet_01v8_A6MZLZ
C0 vdd vin 0.13776f
C1 vout vin 0.12658f
C2 vdd vout 0.11998f
C3 vin vss 0.56678f
C4 vout vss 0.40687f
C5 vdd vss 1.84972f
.ends

.subckt buffer in out vdd inv_1/vin vss
Xinv_0 in vdd inv_1/vin vss inv
Xinv_1 inv_1/vin vdd out vss inv
C0 in inv_1/vin 0.01628f
C1 in vdd 0.01965f
C2 out inv_1/vin 0.0071f
C3 out vdd 0.00589f
C4 vdd inv_1/vin 0.16476f
C5 inv_1/vin vss 0.60193f
C6 out vss 0.3255f
C7 in vss 0.41789f
C8 vdd vss 3.06334f
.ends

.subckt tmux_7therm_to_3bin d0 d1 d2 d3 d4 d5 d6 q0 q1 q2 buffer_7/inv_1/vin buffer_3/inv_1/vin
+ buffer_2/out buffer_8/inv_1/vin buffer_4/inv_1/vin buffer_0/inv_1/vin buffer_6/out
+ R1/R2 buffer_9/inv_1/vin buffer_0/out buffer_5/inv_1/vin buffer_5/out buffer_1/inv_1/vin
+ tmux_2to1_0/XM5/G tmux_2to1_3/B tmux_2to1_1/XM5/G tmux_2to1_3/A tmux_2to1_2/XM5/G
+ tmux_2to1_3/XM5/G R1/R1 buffer_6/inv_1/vin buffer_2/inv_1/vin R1/m1_n100_n100# buffer_1/out
+ buffer_8/in vdd vss buffer_7/in buffer_4/out
Xtmux_2to1_1 buffer_8/in vdd tmux_2to1_1/XM5/G buffer_1/out buffer_5/out R1/R1 vss
+ tmux_2to1
Xtmux_2to1_2 tmux_2to1_3/B vdd tmux_2to1_2/XM5/G buffer_2/out buffer_6/out R1/R1 vss
+ tmux_2to1
Xtmux_2to1_3 buffer_7/in vdd tmux_2to1_3/XM5/G tmux_2to1_3/A tmux_2to1_3/B buffer_8/in
+ vss tmux_2to1
XR1 R1/R1 R1/R2 R1/m1_n100_n100# vss sky130_fd_pr__res_generic_m1_SPQYYJ
Xbuffer_0 d0 buffer_0/out vdd buffer_0/inv_1/vin vss buffer
Xbuffer_1 d1 buffer_1/out vdd buffer_1/inv_1/vin vss buffer
Xbuffer_2 d2 buffer_2/out vdd buffer_2/inv_1/vin vss buffer
Xbuffer_3 d3 R1/R2 vdd buffer_3/inv_1/vin vss buffer
Xbuffer_4 d4 buffer_4/out vdd buffer_4/inv_1/vin vss buffer
Xbuffer_5 d5 buffer_5/out vdd buffer_5/inv_1/vin vss buffer
Xbuffer_6 d6 buffer_6/out vdd buffer_6/inv_1/vin vss buffer
Xbuffer_7 buffer_7/in q0 vdd buffer_7/inv_1/vin vss buffer
Xbuffer_8 buffer_8/in q1 vdd buffer_8/inv_1/vin vss buffer
Xbuffer_9 R1/R1 q2 vdd buffer_9/inv_1/vin vss buffer
Xtmux_2to1_0 tmux_2to1_3/A vdd tmux_2to1_0/XM5/G buffer_0/out buffer_4/out R1/R1 vss
+ tmux_2to1
C0 buffer_0/out buffer_7/in 0
C1 vdd tmux_2to1_3/A 0.31099f
C2 buffer_8/inv_1/vin buffer_7/inv_1/vin 0.00435f
C3 R1/R1 tmux_2to1_3/A 0.0222f
C4 vdd buffer_2/inv_1/vin 0.32649f
C5 buffer_6/out tmux_2to1_2/XM5/G 0.02333f
C6 tmux_2to1_3/B q2 0
C7 buffer_5/out buffer_8/inv_1/vin 0
C8 R1/R1 buffer_2/inv_1/vin 0.02182f
C9 d4 d5 0.00435f
C10 tmux_2to1_3/B buffer_4/out 0.27941f
C11 tmux_2to1_3/B tmux_2to1_3/XM5/G 0.0457f
C12 buffer_5/inv_1/vin vdd 0.32846f
C13 tmux_2to1_3/B d2 0
C14 buffer_0/inv_1/vin vdd 0.32203f
C15 buffer_0/inv_1/vin R1/R1 0.01886f
C16 buffer_4/out buffer_7/inv_1/vin 0.00238f
C17 tmux_2to1_3/B buffer_1/out 0
C18 vdd buffer_9/inv_1/vin 0.03021f
C19 buffer_4/inv_1/vin vdd 0.32846f
C20 buffer_5/out buffer_4/out 1.96436f
C21 R1/R1 buffer_9/inv_1/vin 0.00349f
C22 tmux_2to1_3/B buffer_6/out 0.18281f
C23 d3 d2 0.00435f
C24 buffer_5/out tmux_2to1_3/XM5/G 0.01262f
C25 buffer_4/out tmux_2to1_0/XM5/G 0.02654f
C26 d0 tmux_2to1_0/XM5/G 0
C27 buffer_2/out buffer_4/out 0.0018f
C28 d6 vdd 0.07265f
C29 buffer_4/out tmux_2to1_1/XM5/G 0.02598f
C30 buffer_1/out buffer_5/out 0.05669f
C31 buffer_6/out buffer_5/out 0.48773f
C32 R1/R1 vdd 2.2016f
C33 buffer_2/out d2 0
C34 buffer_8/in buffer_7/in 0.24628f
C35 buffer_1/inv_1/vin buffer_8/in 0
C36 buffer_1/out tmux_2to1_1/XM5/G 0.18587f
C37 buffer_4/out tmux_2to1_3/A 0.60354f
C38 buffer_2/out buffer_6/out 0.01539f
C39 buffer_5/out d5 0.00133f
C40 d1 vdd 0.07265f
C41 buffer_8/inv_1/vin buffer_9/inv_1/vin 0.00438f
C42 tmux_2to1_3/XM5/G tmux_2to1_3/A 0.04146f
C43 d0 tmux_2to1_3/A 0
C44 d1 R1/R1 0
C45 buffer_0/out tmux_2to1_0/XM5/G 0.18135f
C46 buffer_3/inv_1/vin buffer_5/out 0
C47 buffer_1/out tmux_2to1_3/A 0
C48 buffer_5/out R1/m1_n100_n100# 0.01185f
C49 q0 tmux_2to1_3/A 0
C50 buffer_4/out buffer_4/inv_1/vin 0.0079f
C51 buffer_8/inv_1/vin vdd 0.02538f
C52 q1 buffer_8/in 0
C53 tmux_2to1_3/B buffer_8/in 0.28179f
C54 buffer_0/out tmux_2to1_3/A 0.05826f
C55 buffer_6/out buffer_5/inv_1/vin 0
C56 R1/R2 buffer_5/out 0.01212f
C57 q2 vdd 0.01294f
C58 q2 R1/R1 0
C59 buffer_6/out buffer_9/inv_1/vin 0.00222f
C60 buffer_6/out buffer_4/inv_1/vin 0
C61 buffer_4/out vdd 1.78677f
C62 q1 buffer_7/in 0
C63 tmux_2to1_3/B buffer_7/in 0.20877f
C64 buffer_4/out R1/R1 0.26729f
C65 buffer_6/inv_1/vin buffer_5/inv_1/vin 0.00438f
C66 tmux_2to1_3/XM5/G vdd 0.0495f
C67 buffer_3/inv_1/vin buffer_2/inv_1/vin 0.00435f
C68 d0 vdd 0.0683f
C69 tmux_2to1_3/XM5/G R1/R1 0
C70 d0 R1/R1 0
C71 buffer_5/out buffer_8/in 0.33947f
C72 buffer_0/inv_1/vin buffer_0/out 0.00873f
C73 d2 vdd 0.07265f
C74 d2 R1/R1 0.00119f
C75 buffer_6/out d6 0.00132f
C76 buffer_7/in buffer_7/inv_1/vin 0.00796f
C77 buffer_1/out vdd 0.83708f
C78 buffer_1/out R1/R1 0.22519f
C79 buffer_5/out buffer_7/in 0.00264f
C80 buffer_6/out vdd 3.00774f
C81 d3 d4 0.00438f
C82 d1 d0 0.00435f
C83 buffer_6/out R1/R1 0.20693f
C84 tmux_2to1_3/B tmux_2to1_2/XM5/G 0.03416f
C85 buffer_8/in tmux_2to1_1/XM5/G 0.12457f
C86 q0 vdd 0.01294f
C87 buffer_7/in tmux_2to1_0/XM5/G 0.00597f
C88 d1 d2 0.00438f
C89 buffer_3/inv_1/vin buffer_4/inv_1/vin 0.00438f
C90 d5 d6 0.00438f
C91 buffer_6/inv_1/vin vdd 0.32835f
C92 d1 buffer_1/out 0.00148f
C93 tmux_2to1_1/XM5/G buffer_7/in 0
C94 d5 vdd 0.07265f
C95 buffer_0/out vdd 0.83616f
C96 buffer_0/out R1/R1 0.11396f
C97 buffer_8/in tmux_2to1_3/A 0.1382f
C98 buffer_5/out tmux_2to1_2/XM5/G 0.09828f
C99 q1 tmux_2to1_3/B 0
C100 buffer_3/inv_1/vin vdd 0.32836f
C101 buffer_3/inv_1/vin R1/R1 0.00894f
C102 buffer_7/in tmux_2to1_3/A 0.38438f
C103 R1/m1_n100_n100# vdd 0.01544f
C104 buffer_2/out tmux_2to1_2/XM5/G 0.14365f
C105 R1/R1 R1/m1_n100_n100# 0.04565f
C106 tmux_2to1_1/XM5/G tmux_2to1_2/XM5/G 0.00433f
C107 buffer_4/out tmux_2to1_3/XM5/G 0.04713f
C108 buffer_1/inv_1/vin buffer_2/inv_1/vin 0.00438f
C109 tmux_2to1_3/B buffer_5/out 0.16421f
C110 R1/R2 vdd 0.32828f
C111 R1/R2 R1/R1 0.03366f
C112 buffer_1/out buffer_4/out 0.00456f
C113 buffer_1/inv_1/vin buffer_0/inv_1/vin 0.00435f
C114 buffer_2/out tmux_2to1_3/B 0.04026f
C115 buffer_6/out buffer_4/out 1.41966f
C116 buffer_1/out tmux_2to1_3/XM5/G 0
C117 tmux_2to1_3/B tmux_2to1_1/XM5/G 0
C118 buffer_8/in vdd 0.52301f
C119 buffer_8/in R1/R1 0.07792f
C120 buffer_4/out buffer_0/out 0.0414f
C121 buffer_2/out buffer_5/out 0.05213f
C122 tmux_2to1_3/B tmux_2to1_3/A 0.0101f
C123 buffer_5/out tmux_2to1_1/XM5/G 0.02579f
C124 buffer_7/in vdd 0.23539f
C125 R1/R1 buffer_7/in 0.00295f
C126 d0 buffer_0/out 0.0015f
C127 tmux_2to1_3/B buffer_2/inv_1/vin 0
C128 d1 buffer_8/in 0
C129 tmux_2to1_1/XM5/G tmux_2to1_0/XM5/G 0.00433f
C130 buffer_1/inv_1/vin vdd 0.32649f
C131 d4 vdd 0.07265f
C132 buffer_3/inv_1/vin buffer_4/out 0
C133 buffer_1/inv_1/vin R1/R1 0.02062f
C134 tmux_2to1_3/A buffer_7/inv_1/vin 0
C135 buffer_6/out buffer_6/inv_1/vin 0.00786f
C136 buffer_4/out R1/m1_n100_n100# 0.00131f
C137 buffer_5/out tmux_2to1_3/A 0.00456f
C138 tmux_2to1_0/XM5/G tmux_2to1_3/A 0.08101f
C139 tmux_2to1_2/XM5/G vdd 0.05427f
C140 tmux_2to1_2/XM5/G R1/R1 0.26532f
C141 tmux_2to1_3/B buffer_9/inv_1/vin 0.00176f
C142 buffer_8/in buffer_8/inv_1/vin 0.01384f
C143 buffer_6/out buffer_3/inv_1/vin 0
C144 tmux_2to1_1/XM5/G tmux_2to1_3/A 0
C145 R1/R2 buffer_4/out 0.00232f
C146 buffer_5/out buffer_5/inv_1/vin 0.00827f
C147 buffer_6/out R1/m1_n100_n100# 0
C148 buffer_2/out buffer_2/inv_1/vin 0.00356f
C149 buffer_8/inv_1/vin buffer_7/in 0
C150 buffer_0/inv_1/vin tmux_2to1_0/XM5/G 0
C151 buffer_5/out buffer_4/inv_1/vin 0
C152 q1 vdd 0.01294f
C153 tmux_2to1_3/B vdd 1.44834f
C154 tmux_2to1_3/B R1/R1 0.24354f
C155 buffer_4/out buffer_8/in 0.18314f
C156 buffer_8/in tmux_2to1_3/XM5/G 0.34642f
C157 buffer_6/out R1/R2 0.00154f
C158 d3 vdd 0.07265f
C159 vdd buffer_7/inv_1/vin 0.02382f
C160 buffer_4/out buffer_7/in 0.04488f
C161 d3 R1/R1 0
C162 buffer_3/inv_1/vin R1/m1_n100_n100# 0.00103f
C163 tmux_2to1_3/XM5/G buffer_7/in 0.01403f
C164 buffer_5/out vdd 1.96257f
C165 buffer_1/out buffer_8/in 0.06403f
C166 buffer_5/out R1/R1 0.55887f
C167 d4 buffer_4/out 0.00133f
C168 buffer_0/inv_1/vin tmux_2to1_3/A 0
C169 vdd tmux_2to1_0/XM5/G 0.05854f
C170 R1/R1 tmux_2to1_0/XM5/G 0.0674f
C171 buffer_1/out buffer_7/in 0
C172 buffer_2/out vdd 0.64599f
C173 buffer_2/out R1/R1 0.2789f
C174 tmux_2to1_1/XM5/G vdd 0.04059f
C175 buffer_4/out tmux_2to1_2/XM5/G 0.07683f
C176 tmux_2to1_1/XM5/G R1/R1 0.13419f
C177 buffer_1/inv_1/vin buffer_1/out 0.0086f
C178 q0 buffer_7/in 0
C179 tmux_2to1_3/B buffer_8/inv_1/vin 0.00974f
C180 R1/R2 R1/m1_n100_n100# 0.0386f
C181 buffer_5/inv_1/vin buffer_4/inv_1/vin 0.00435f
C182 tmux_2to1_3/A vss 0.7137f
C183 tmux_2to1_0/XM5/G vss 0.55203f
C184 buffer_9/inv_1/vin vss 0.83718f
C185 q2 vss 0.40182f
C186 buffer_8/inv_1/vin vss 0.83586f
C187 q1 vss 0.40182f
C188 buffer_7/inv_1/vin vss 0.83588f
C189 q0 vss 0.40182f
C190 buffer_6/inv_1/vin vss 0.54713f
C191 buffer_6/out vss 1.08087f
C192 d6 vss 0.42023f
C193 buffer_5/inv_1/vin vss 0.54811f
C194 buffer_5/out vss 1.1426f
C195 d5 vss 0.41693f
C196 vdd vss 81.61826f
C197 buffer_4/inv_1/vin vss 0.54811f
C198 buffer_4/out vss 1.13891f
C199 d4 vss 0.41693f
C200 buffer_3/inv_1/vin vss 0.54811f
C201 R1/R2 vss 0.24595f
C202 d3 vss 0.41694f
C203 buffer_2/inv_1/vin vss 0.55981f
C204 buffer_2/out vss 0.38944f
C205 d2 vss 0.41693f
C206 buffer_1/inv_1/vin vss 0.55981f
C207 buffer_1/out vss 0.403f
C208 d1 vss 0.41693f
C209 buffer_0/inv_1/vin vss 0.55981f
C210 buffer_0/out vss 0.40723f
C211 d0 vss 0.42457f
C212 R1/m1_n100_n100# vss 0.11104f
C213 buffer_8/in vss 1.94693f
C214 buffer_7/in vss 1.30882f
C215 tmux_2to1_3/XM5/G vss 0.55181f
C216 R1/R1 vss 4.97016f
C217 tmux_2to1_3/B vss 1.00035f
C218 tmux_2to1_2/XM5/G vss 0.54992f
C219 tmux_2to1_1/XM5/G vss 0.55178f
.ends

.subckt flashADC_3bit dout0 dout1 dout2 tmux_7therm_to_3bin_0/buffer_1/out vbias_generation_0/bias_n
+ tmux_7therm_to_3bin_0/buffer_6/inv_1/vin tmux_7therm_to_3bin_0/buffer_2/inv_1/vin
+ comp_p_3/latch_left comp_p_5/tail tmux_7therm_to_3bin_0/buffer_8/in comp_p_2/tail
+ comp_p_4/latch_left tmux_7therm_to_3bin_0/buffer_7/in comp_p_5/latch_left vbias_generation_0/XR_bias_2/R2
+ tmux_7therm_to_3bin_0/R1/m1_n100_n100# tmux_7therm_to_3bin_0/buffer_7/inv_1/vin
+ tmux_7therm_to_3bin_0/buffer_2/out tmux_7therm_to_3bin_0/buffer_3/inv_1/vin comp_p_6/latch_left
+ comp_p_1/out_left comp_p_6/tail comp_p_0/latch_right comp_p_1/latch_right comp_p_2/latch_right
+ comp_p_3/latch_right comp_p_3/tail comp_p_4/latch_right comp_p_5/latch_right tmux_7therm_to_3bin_0/buffer_8/inv_1/vin
+ tmux_7therm_to_3bin_0/buffer_6/out comp_p_4/out_left comp_p_4/vinn comp_p_6/latch_right
+ comp_p_0/tail tmux_7therm_to_3bin_0/buffer_4/inv_1/vin tmux_7therm_to_3bin_0/buffer_0/inv_1/vin
+ tmux_7therm_to_3bin_0/R1/R2 comp_p_2/latch_left vbias_generation_0/XR_bias_4/R1
+ tmux_7therm_to_3bin_0/tmux_2to1_0/XM5/G d1 comp_p_3/vinn tmux_7therm_to_3bin_0/tmux_2to1_1/XM5/G
+ comp_p_2/out_left tmux_7therm_to_3bin_0/buffer_0/out comp_p_0/out_left tmux_7therm_to_3bin_0/tmux_2to1_2/XM5/G
+ tmux_7therm_to_3bin_0/tmux_2to1_3/XM5/G comp_p_6/vinn tmux_7therm_to_3bin_0/buffer_5/out
+ d2 tmux_7therm_to_3bin_0/buffer_9/inv_1/vin comp_p_4/tail tmux_7therm_to_3bin_0/R1/R1
+ comp_p_0/latch_left tmux_7therm_to_3bin_0/buffer_5/inv_1/vin tmux_7therm_to_3bin_0/buffer_1/inv_1/vin
+ d4 comp_p_5/vinn tmux_7therm_to_3bin_0/tmux_2to1_3/B comp_p_1/tail comp_p_0/vinn
+ vin comp_p_6/out_left tmux_7therm_to_3bin_0/tmux_2to1_3/A comp_p_1/latch_left vdd
+ tmux_7therm_to_3bin_0/buffer_4/out d5 d3 d0 comp_p_1/vinn comp_p_2/vinn vref comp_p_5/out_left
+ vbias_generation_0/XR_bias_3/R2 d6 vss comp_p_3/out_left comp_p_6/vbias_p
Xvbias_generation_0 vbias_generation_0/bias_n vdd vbias_generation_0/XR_bias_2/R2
+ vbias_generation_0/XR_bias_4/R1 vbias_generation_0/XR_bias_3/R2 comp_p_6/vbias_p
+ vss vbias_generation
Xres_ladder_vref_0 comp_p_2/vinn comp_p_5/vinn comp_p_6/vinn vref comp_p_3/vinn comp_p_0/vinn
+ comp_p_1/vinn comp_p_4/vinn vss res_ladder_vref
Xcomp_p_1 vin comp_p_1/vinn comp_p_6/vbias_p vdd comp_p_1/tail d0 comp_p_1/latch_right
+ comp_p_1/out_left comp_p_1/latch_left vss comp_p
Xcomp_p_0 vin comp_p_0/vinn comp_p_6/vbias_p vdd comp_p_0/tail d1 comp_p_0/latch_right
+ comp_p_0/out_left comp_p_0/latch_left vss comp_p
Xcomp_p_2 vin comp_p_2/vinn comp_p_6/vbias_p vdd comp_p_2/tail d2 comp_p_2/latch_right
+ comp_p_2/out_left comp_p_2/latch_left vss comp_p
Xcomp_p_3 vin comp_p_3/vinn comp_p_6/vbias_p vdd comp_p_3/tail d3 comp_p_3/latch_right
+ comp_p_3/out_left comp_p_3/latch_left vss comp_p
Xcomp_p_4 vin comp_p_4/vinn comp_p_6/vbias_p vdd comp_p_4/tail d4 comp_p_4/latch_right
+ comp_p_4/out_left comp_p_4/latch_left vss comp_p
Xcomp_p_5 vin comp_p_5/vinn comp_p_6/vbias_p vdd comp_p_5/tail d5 comp_p_5/latch_right
+ comp_p_5/out_left comp_p_5/latch_left vss comp_p
Xcomp_p_6 vin comp_p_6/vinn comp_p_6/vbias_p vdd comp_p_6/tail d6 comp_p_6/latch_right
+ comp_p_6/out_left comp_p_6/latch_left vss comp_p
Xtmux_7therm_to_3bin_0 d0 d1 d2 d3 d4 d5 d6 dout0 dout1 dout2 tmux_7therm_to_3bin_0/buffer_7/inv_1/vin
+ tmux_7therm_to_3bin_0/buffer_3/inv_1/vin tmux_7therm_to_3bin_0/buffer_2/out tmux_7therm_to_3bin_0/buffer_8/inv_1/vin
+ tmux_7therm_to_3bin_0/buffer_4/inv_1/vin tmux_7therm_to_3bin_0/buffer_0/inv_1/vin
+ tmux_7therm_to_3bin_0/buffer_6/out tmux_7therm_to_3bin_0/R1/R2 tmux_7therm_to_3bin_0/buffer_9/inv_1/vin
+ tmux_7therm_to_3bin_0/buffer_0/out tmux_7therm_to_3bin_0/buffer_5/inv_1/vin tmux_7therm_to_3bin_0/buffer_5/out
+ tmux_7therm_to_3bin_0/buffer_1/inv_1/vin tmux_7therm_to_3bin_0/tmux_2to1_0/XM5/G
+ tmux_7therm_to_3bin_0/tmux_2to1_3/B tmux_7therm_to_3bin_0/tmux_2to1_1/XM5/G tmux_7therm_to_3bin_0/tmux_2to1_3/A
+ tmux_7therm_to_3bin_0/tmux_2to1_2/XM5/G tmux_7therm_to_3bin_0/tmux_2to1_3/XM5/G
+ tmux_7therm_to_3bin_0/R1/R1 tmux_7therm_to_3bin_0/buffer_6/inv_1/vin tmux_7therm_to_3bin_0/buffer_2/inv_1/vin
+ tmux_7therm_to_3bin_0/R1/m1_n100_n100# tmux_7therm_to_3bin_0/buffer_1/out tmux_7therm_to_3bin_0/buffer_8/in
+ vdd vss tmux_7therm_to_3bin_0/buffer_7/in tmux_7therm_to_3bin_0/buffer_4/out tmux_7therm_to_3bin
C0 comp_p_2/tail vdd 0.00168f
C1 vin comp_p_3/tail 0.00233f
C2 d5 comp_p_3/out_left 0.02324f
C3 comp_p_3/latch_left comp_p_3/vinn 0.00666f
C4 comp_p_4/latch_left comp_p_6/vinn 0.00606f
C5 d1 tmux_7therm_to_3bin_0/buffer_0/inv_1/vin 0.00131f
C6 comp_p_5/latch_left d6 0.00183f
C7 comp_p_2/latch_left comp_p_0/out_left 0.01472f
C8 vref comp_p_6/vinn 0.00148f
C9 tmux_7therm_to_3bin_0/buffer_1/inv_1/vin d3 0
C10 d5 tmux_7therm_to_3bin_0/buffer_5/out 0
C11 comp_p_1/vinn comp_p_0/latch_right 0.1958f
C12 d4 tmux_7therm_to_3bin_0/buffer_0/out 0
C13 vdd d2 1.1602f
C14 vin comp_p_4/tail 0.01181f
C15 tmux_7therm_to_3bin_0/buffer_1/out d2 0
C16 comp_p_4/latch_right d4 0
C17 vbias_generation_0/XR_bias_4/R1 comp_p_4/latch_left 0
C18 vdd tmux_7therm_to_3bin_0/buffer_3/inv_1/vin 0
C19 tmux_7therm_to_3bin_0/buffer_4/inv_1/vin vdd 0.00104f
C20 vin comp_p_1/out_left 0.07139f
C21 d0 tmux_7therm_to_3bin_0/buffer_0/out 0
C22 comp_p_5/vinn comp_p_4/tail 0.10856f
C23 comp_p_6/out_left vdd 1.84652f
C24 tmux_7therm_to_3bin_0/R1/R1 vdd 0.00399f
C25 tmux_7therm_to_3bin_0/R1/R1 tmux_7therm_to_3bin_0/buffer_1/out 0
C26 d1 comp_p_3/vinn 0
C27 d6 d2 0.05303f
C28 comp_p_1/vinn d2 0.00152f
C29 vdd tmux_7therm_to_3bin_0/buffer_0/inv_1/vin 0.00196f
C30 tmux_7therm_to_3bin_0/buffer_2/out d3 0
C31 vin d1 0.63586f
C32 comp_p_4/out_left comp_p_6/vinn 0.04948f
C33 tmux_7therm_to_3bin_0/buffer_4/inv_1/vin d6 0
C34 tmux_7therm_to_3bin_0/buffer_3/inv_1/vin d6 0
C35 dout0 dout1 -0
C36 d1 comp_p_1/tail 0.00457f
C37 comp_p_4/latch_right comp_p_4/vinn 0.00144f
C38 d5 tmux_7therm_to_3bin_0/buffer_0/out 0
C39 vbias_generation_0/XR_bias_4/R1 comp_p_4/out_left 0
C40 tmux_7therm_to_3bin_0/tmux_2to1_3/A vdd 0.00153f
C41 d6 tmux_7therm_to_3bin_0/buffer_0/inv_1/vin 0
C42 vdd comp_p_5/latch_right 1.9557f
C43 comp_p_0/latch_left vin 0.00334f
C44 vdd comp_p_3/vinn 1.48772f
C45 tmux_7therm_to_3bin_0/buffer_1/inv_1/vin d1 0.00482f
C46 vin vdd 10.39915f
C47 vbias_generation_0/bias_n comp_p_6/vinn 0.43753f
C48 comp_p_0/vinn comp_p_2/out_left 0.0271f
C49 d4 d0 0.03391f
C50 d4 comp_p_5/tail 0.00264f
C51 vdd comp_p_1/tail 0.35563f
C52 comp_p_5/vinn vdd 1.45079f
C53 comp_p_5/latch_right d6 0
C54 comp_p_3/latch_right d2 0.09517f
C55 comp_p_2/vinn comp_p_3/out_left 0
C56 comp_p_3/vinn d6 0
C57 comp_p_1/vinn comp_p_3/vinn 0.03321f
C58 vin vbias_generation_0/XR_bias_2/R2 0.50675f
C59 vin d6 0.01178f
C60 d4 comp_p_4/vinn -0
C61 tmux_7therm_to_3bin_0/buffer_2/inv_1/vin d2 0.00483f
C62 vin comp_p_1/vinn 0.97735f
C63 d1 tmux_7therm_to_3bin_0/buffer_2/out 0.00551f
C64 d5 d4 4.51321f
C65 comp_p_2/tail comp_p_3/out_left 0
C66 tmux_7therm_to_3bin_0/buffer_1/inv_1/vin vdd 0
C67 d6 comp_p_1/tail 0
C68 comp_p_5/vinn d6 0.00513f
C69 vin comp_p_6/tail 0
C70 comp_p_6/out_left comp_p_6/vinn 0.14972f
C71 comp_p_5/out_left d3 0.02309f
C72 comp_p_0/vinn comp_p_2/latch_left 0
C73 comp_p_6/vbias_p d3 0
C74 d5 d0 0.04762f
C75 vin comp_p_0/out_left 0.0787f
C76 comp_p_6/latch_left comp_p_5/latch_left 0.00925f
C77 comp_p_3/out_left d2 0.67197f
C78 comp_p_6/vbias_p comp_p_5/out_left -0.0642f
C79 vbias_generation_0/bias_n comp_p_6/latch_left 0.01259f
C80 tmux_7therm_to_3bin_0/buffer_1/inv_1/vin d6 0
C81 tmux_7therm_to_3bin_0/R1/R2 d3 0
C82 comp_p_0/vinn comp_p_2/vinn 0.02754f
C83 comp_p_0/vinn comp_p_0/latch_right 0.00236f
C84 comp_p_3/latch_left d3 0
C85 comp_p_3/latch_right comp_p_3/vinn 0.00805f
C86 comp_p_4/latch_right comp_p_5/latch_left 0.02598f
C87 comp_p_5/out_left comp_p_4/tail 0
C88 tmux_7therm_to_3bin_0/buffer_5/inv_1/vin d4 0.00384f
C89 comp_p_6/vbias_p comp_p_4/tail 0.31443f
C90 vin comp_p_6/vinn 1.01745f
C91 vbias_generation_0/bias_n comp_p_4/latch_right 0
C92 comp_p_2/vinn comp_p_2/latch_right 0
C93 comp_p_1/out_left d3 0
C94 comp_p_2/latch_right comp_p_0/latch_right 0.01494f
C95 comp_p_1/latch_left d3 0
C96 comp_p_1/latch_right d3 0.00104f
C97 comp_p_6/vbias_p comp_p_1/out_left -0.065f
C98 comp_p_4/latch_left comp_p_4/vinn 0.00288f
C99 comp_p_5/vinn comp_p_6/vinn 0.03037f
C100 vdd tmux_7therm_to_3bin_0/buffer_6/inv_1/vin 0.00122f
C101 d2 tmux_7therm_to_3bin_0/buffer_0/out 0
C102 vin vbias_generation_0/XR_bias_4/R1 0.00472f
C103 d1 d3 0.11517f
C104 comp_p_3/out_left comp_p_3/vinn 0.20126f
C105 vin comp_p_3/out_left 0.05071f
C106 comp_p_6/vbias_p d1 0.37529f
C107 comp_p_2/latch_right d2 0.00137f
C108 comp_p_5/latch_left d4 0.06545f
C109 vin comp_p_0/tail 0.01181f
C110 tmux_7therm_to_3bin_0/buffer_6/inv_1/vin d6 0.00531f
C111 comp_p_1/latch_left comp_p_3/latch_left 0.00925f
C112 tmux_7therm_to_3bin_0/buffer_5/inv_1/vin d5 0.00186f
C113 vbias_generation_0/bias_n d4 0.00802f
C114 comp_p_4/vinn comp_p_4/out_left 0.02516f
C115 comp_p_3/latch_left d1 0
C116 vdd comp_p_6/latch_right 1.95582f
C117 vdd d3 2.3721f
C118 comp_p_6/vbias_p comp_p_0/latch_left 0.37827f
C119 vin comp_p_6/latch_left 0.00266f
C120 comp_p_5/out_left vdd 1.8042f
C121 tmux_7therm_to_3bin_0/buffer_1/out d3 0
C122 comp_p_6/vbias_p vdd 12.48384f
C123 tmux_7therm_to_3bin_0/tmux_2to1_0/XM5/G d0 0
C124 d4 d2 0.04942f
C125 comp_p_1/out_left d1 0.67001f
C126 comp_p_0/vinn comp_p_3/vinn 0.53686f
C127 d1 comp_p_1/latch_right 0.09536f
C128 comp_p_1/latch_left d1 0.09502f
C129 d4 tmux_7therm_to_3bin_0/buffer_3/inv_1/vin 0
C130 comp_p_0/vinn vin 0.81463f
C131 tmux_7therm_to_3bin_0/buffer_4/inv_1/vin d4 0.00318f
C132 comp_p_2/out_left comp_p_4/out_left 0.01584f
C133 d3 d6 0.07956f
C134 d0 d2 0.03281f
C135 comp_p_1/vinn d3 0
C136 comp_p_5/out_left d6 0
C137 comp_p_3/tail vdd 0.35691f
C138 comp_p_6/vbias_p vbias_generation_0/XR_bias_2/R2 0.02749f
C139 tmux_7therm_to_3bin_0/R1/R1 d4 0
C140 comp_p_6/out_left d4 0.27385f
C141 vin comp_p_4/latch_right 0.21628f
C142 comp_p_3/latch_left vdd 2.04611f
C143 tmux_7therm_to_3bin_0/tmux_2to1_3/XM5/G vdd 0
C144 comp_p_6/vbias_p comp_p_1/vinn 0.38594f
C145 comp_p_2/latch_right comp_p_3/vinn 0.17593f
C146 vin comp_p_2/latch_right 0.21614f
C147 vdd comp_p_4/tail 0.00166f
C148 d4 tmux_7therm_to_3bin_0/buffer_0/inv_1/vin 0
C149 tmux_7therm_to_3bin_0/R1/R1 d0 0.00538f
C150 comp_p_4/latch_right comp_p_5/vinn 0.20935f
C151 comp_p_1/out_left vdd 1.79183f
C152 vdd tmux_7therm_to_3bin_0/buffer_4/out 0.00846f
C153 comp_p_2/out_left comp_p_2/vinn 0.0232f
C154 comp_p_3/tail d6 0
C155 comp_p_6/vbias_p comp_p_0/out_left 0.68459f
C156 d0 tmux_7therm_to_3bin_0/buffer_0/inv_1/vin 0.00746f
C157 comp_p_1/latch_left vdd 2.04615f
C158 comp_p_1/latch_right vdd 1.96641f
C159 comp_p_3/latch_left d6 0
C160 d5 d2 0.04508f
C161 vbias_generation_0/bias_n comp_p_4/latch_left 0
C162 d1 vdd 1.15842f