* NGSPICE file created from flashADC_3bit_extracted.ext - technology: sky130A

.subckt sky130_fd_pr__res_xhigh_po_1p41_UKZ7C9 B R1 R2
X0 R1 R2 B sky130_fd_pr__res_xhigh_po_1p41 l=7
C0 R2 R1 0.01325f
C1 R2 B 0.82332f
C2 R1 B 0.82332f
.ends

.subckt sky130_fd_pr__nfet_01v8_lvt_ELBHUY B D S G
X0 S G D B sky130_fd_pr__nfet_01v8_lvt ad=1.45 pd=10.58 as=1.45 ps=10.58 w=5 l=1
C0 D G 0.11229f
C1 S G 0.11229f
C2 S D 0.27388f
C3 S B 0.59197f
C4 D B 0.59197f
C5 G B 0.75059f
.ends

.subckt sky130_fd_pr__pfet_01v8_lvt_VTBKAA B D S G VSUBS
X0 S G D B sky130_fd_pr__pfet_01v8_lvt ad=2.9 pd=20.58 as=2.9 ps=20.58 w=10 l=1
C0 S G 0.21915f
C1 D S 0.54671f
C2 G B 0.43443f
C3 D B 0.634f
C4 S B 0.634f
C5 D G 0.21915f
C6 S VSUBS 0.51455f
C7 D VSUBS 0.51455f
C8 G VSUBS 0.36418f
C9 B VSUBS 5.72384f
.ends

.subckt vbias_generation bias_n vdd XR_bias_2/R2 XR_bias_4/R1 XR_bias_3/R2 bias_p
+ vss
XXR_bias_1 vss XR_bias_2/R2 bias_p sky130_fd_pr__res_xhigh_po_1p41_UKZ7C9
XXR_bias_2 vss XR_bias_3/R2 XR_bias_2/R2 sky130_fd_pr__res_xhigh_po_1p41_UKZ7C9
XXR_bias_3 vss XR_bias_4/R1 XR_bias_3/R2 sky130_fd_pr__res_xhigh_po_1p41_UKZ7C9
XXR_bias_4 vss XR_bias_4/R1 bias_n sky130_fd_pr__res_xhigh_po_1p41_UKZ7C9
XXMn_bias vss bias_n vss bias_n sky130_fd_pr__nfet_01v8_lvt_ELBHUY
XXMp_bias vdd bias_p vdd bias_p vss sky130_fd_pr__pfet_01v8_lvt_VTBKAA
C0 XR_bias_3/R2 XR_bias_2/R2 0
C1 XR_bias_4/R1 XR_bias_2/R2 0.06887f
C2 bias_p XR_bias_2/R2 0.05112f
C3 bias_n XR_bias_3/R2 0.06908f
C4 bias_n XR_bias_4/R1 0
C5 bias_p vdd 0.22745f
C6 XR_bias_4/R1 XR_bias_3/R2 0
C7 bias_p XR_bias_3/R2 0.06932f
C8 bias_p XR_bias_4/R1 0
C9 XR_bias_2/R2 vdd 0.01866f
C10 vdd vss 6.78775f
C11 bias_n vss 2.48381f
C12 XR_bias_4/R1 vss 1.63605f
C13 XR_bias_3/R2 vss 1.57785f
C14 XR_bias_2/R2 vss 1.57097f
C15 bias_p vss 1.64123f
.ends

.subckt sky130_fd_pr__res_xhigh_po_5p73_JT48NU B R1 R2
X0 R1 R2 B sky130_fd_pr__res_xhigh_po_5p73 l=5.73
C0 R2 R1 0.06813f
C1 R2 B 1.74197f
C2 R1 B 1.74197f
.ends

.subckt res_ladder_vref ref2 ref5 ref6 vref ref3 ref1 ref0 ref4 vss
XXR1 vss ref6 vref sky130_fd_pr__res_xhigh_po_5p73_JT48NU
XXR2 vss ref6 vref sky130_fd_pr__res_xhigh_po_5p73_JT48NU
XXR10 vss ref0 vss sky130_fd_pr__res_xhigh_po_5p73_JT48NU
XXR3 vss ref6 ref5 sky130_fd_pr__res_xhigh_po_5p73_JT48NU
XXR4 vss ref4 ref5 sky130_fd_pr__res_xhigh_po_5p73_JT48NU
XXR5 vss ref4 ref3 sky130_fd_pr__res_xhigh_po_5p73_JT48NU
XXR6 vss ref2 ref3 sky130_fd_pr__res_xhigh_po_5p73_JT48NU
XXR7 vss ref2 ref1 sky130_fd_pr__res_xhigh_po_5p73_JT48NU
XXR8 vss ref0 ref1 sky130_fd_pr__res_xhigh_po_5p73_JT48NU
XXR9 vss ref0 vss sky130_fd_pr__res_xhigh_po_5p73_JT48NU
C0 ref5 ref4 0
C1 ref3 ref2 0
C2 ref3 ref5 0.06887f
C3 ref3 ref1 0.06887f
C4 ref0 ref2 0.06887f
C5 ref3 ref4 0
C6 ref6 ref5 0
C7 ref6 vref 0.16095f
C8 ref2 ref1 0
C9 vref ref5 0.06887f
C10 ref2 ref4 0.06887f
C11 ref6 ref4 0.06887f
C12 ref0 ref1 0
C13 ref1 vss 3.4889f
C14 ref2 vss 3.42003f
C15 ref3 vss 3.42003f
C16 ref4 vss 3.42003f
C17 ref5 vss 3.42003f
C18 ref6 vss 5.161f
C19 ref0 vss 5.32418f
C20 vref vss 4.57377f
.ends

.subckt sky130_fd_pr__nfet_01v8_lvt_MMMA4V a_n260_n698# a_100_n500# a_n158_n500# a_n100_n588#
X0 a_100_n500# a_n100_n588# a_n158_n500# a_n260_n698# sky130_fd_pr__nfet_01v8_lvt ad=1.45 pd=10.58 as=1.45 ps=10.58 w=5 l=1
C0 a_n100_n588# a_n158_n500# 0.11229f
C1 a_n100_n588# a_100_n500# 0.11229f
C2 a_n158_n500# a_100_n500# 0.27388f
C3 a_100_n500# a_n260_n698# 0.5905f
C4 a_n158_n500# a_n260_n698# 0.5905f
C5 a_n100_n588# a_n260_n698# 0.7183f
.ends

.subckt sky130_fd_pr__pfet_01v8_lvt_5VNMZ8 a_n100_n897# a_100_n800# w_n296_n1019#
+ a_n158_n800# VSUBS
X0 a_100_n800# a_n100_n897# a_n158_n800# w_n296_n1019# sky130_fd_pr__pfet_01v8_lvt ad=2.32 pd=16.58 as=2.32 ps=16.58 w=8 l=1
C0 w_n296_n1019# a_n100_n897# 0.43443f
C1 a_100_n800# a_n158_n800# 0.43758f
C2 w_n296_n1019# a_100_n800# 0.51205f
C3 a_n100_n897# a_100_n800# 0.17641f
C4 w_n296_n1019# a_n158_n800# 0.51205f
C5 a_n100_n897# a_n158_n800# 0.17641f
C6 a_100_n800# VSUBS 0.41369f
C7 a_n158_n800# VSUBS 0.41369f
C8 a_n100_n897# VSUBS 0.36418f
C9 w_n296_n1019# VSUBS 4.82082f
.ends

.subckt sky130_fd_pr__nfet_01v8_lvt_AHMAL2 a_n260_n574# a_100_n400# a_n158_n400# a_n100_n488#
X0 a_100_n400# a_n100_n488# a_n158_n400# a_n260_n574# sky130_fd_pr__nfet_01v8_lvt ad=1.16 pd=8.58 as=1.16 ps=8.58 w=4 l=1
C0 a_n100_n488# a_n158_n400# 0.09092f
C1 a_n100_n488# a_100_n400# 0.09092f
C2 a_n158_n400# a_100_n400# 0.21931f
C3 a_100_n400# a_n260_n574# 0.48057f
C4 a_n158_n400# a_n260_n574# 0.48057f
C5 a_n100_n488# a_n260_n574# 0.74751f
.ends

.subckt sky130_fd_pr__pfet_01v8_lvt_GUWLND a_n158_n1000# a_n100_n1097# w_n296_n1219#
+ a_100_n1000# VSUBS
X0 a_100_n1000# a_n100_n1097# a_n158_n1000# w_n296_n1219# sky130_fd_pr__pfet_01v8_lvt ad=2.9 pd=20.58 as=2.9 ps=20.58 w=10 l=1
C0 w_n296_n1219# a_n100_n1097# 0.43443f
C1 a_100_n1000# a_n158_n1000# 0.54671f
C2 w_n296_n1219# a_100_n1000# 0.634f
C3 a_n100_n1097# a_100_n1000# 0.21915f
C4 w_n296_n1219# a_n158_n1000# 0.634f
C5 a_n100_n1097# a_n158_n1000# 0.21915f
C6 a_100_n1000# VSUBS 0.51455f
C7 a_n158_n1000# VSUBS 0.51455f
C8 a_n100_n1097# VSUBS 0.36418f
C9 w_n296_n1219# VSUBS 5.72384f
.ends

.subckt comp_p vinp vinn vbias_p vdd tail vout latch_right out_left latch_left vss
XXMn_cs_left vss latch_right vss latch_left sky130_fd_pr__nfet_01v8_lvt_MMMA4V
XXMp_out out_left vdd vdd vout vss sky130_fd_pr__pfet_01v8_lvt_5VNMZ8
XXMn_diode_left1 vss latch_left vss latch_left sky130_fd_pr__nfet_01v8_lvt_AHMAL2
XXMn_cs_right1 vss latch_left vss latch_right sky130_fd_pr__nfet_01v8_lvt_MMMA4V
XXMn_diode_right vss latch_right vss latch_right sky130_fd_pr__nfet_01v8_lvt_AHMAL2
Xsky130_fd_pr__pfet_01v8_lvt_5VNMZ8_0 out_left vdd vdd out_left vss sky130_fd_pr__pfet_01v8_lvt_5VNMZ8
XXMn_out_left vss out_left vss latch_left sky130_fd_pr__nfet_01v8_lvt_MMMA4V
XXMn_out_right vss vout vss latch_right sky130_fd_pr__nfet_01v8_lvt_MMMA4V
XXMp_tail tail vbias_p vdd vdd vss sky130_fd_pr__pfet_01v8_lvt_GUWLND
X0 tail vinn latch_left vdd sky130_fd_pr__pfet_01v8_lvt ad=2.89855 pd=20.57 as=2.89855 ps=20.57 w=9.995 l=0.35
X1 tail vinp latch_right vdd sky130_fd_pr__pfet_01v8_lvt ad=2.89855 pd=20.57 as=2.89855 ps=20.57 w=9.995 l=0.35
X2 tail vinp latch_right vdd sky130_fd_pr__pfet_01v8_lvt ad=2.89855 pd=20.57 as=2.89855 ps=20.57 w=9.995 l=0.35
X3 tail vinp latch_right vdd sky130_fd_pr__pfet_01v8_lvt ad=2.89855 pd=20.57 as=2.89855 ps=20.57 w=9.995 l=0.35
X4 tail vinp latch_right vdd sky130_fd_pr__pfet_01v8_lvt ad=2.89855 pd=20.57 as=2.89855 ps=20.57 w=9.995 l=0.35
X5 tail vinn latch_left vdd sky130_fd_pr__pfet_01v8_lvt ad=2.89855 pd=20.57 as=2.89855 ps=20.57 w=9.995 l=0.35
X6 tail vinn latch_left vdd sky130_fd_pr__pfet_01v8_lvt ad=2.89855 pd=20.57 as=2.89855 ps=20.57 w=9.995 l=0.35
X7 tail vinn latch_left vdd sky130_fd_pr__pfet_01v8_lvt ad=2.89855 pd=20.57 as=2.89855 ps=20.57 w=9.995 l=0.35
C0 out_left latch_right 0.1431f
C1 latch_left latch_right 5.15792f
C2 vinn tail 0.82695f
C3 vbias_p vinn 0.00222f
C4 vinn vout 0.12978f
C5 vbias_p tail 0.65167f
C6 tail vout 0.00803f
C7 vbias_p vout 0.14426f
C8 latch_right vinn 3.53507f
C9 latch_right tail 8.8942f
C10 vbias_p latch_right 0.00109f
C11 latch_right vout 0.72835f
C12 vdd vinp 4.26352f
C13 out_left vinp 0.22514f
C14 latch_left vinp 0.5043f
C15 out_left vdd 2.99708f
C16 vdd latch_left 1.3971f
C17 out_left latch_left 0.73463f
C18 vinn vinp 1.25697f
C19 tail vinp 2.91757f
C20 vbias_p vinp 0.03011f
C21 vout vinp 0.03655f
C22 vdd vinn 2.30474f
C23 vdd tail 2.22915f
C24 vbias_p vdd 2.11961f
C25 latch_right vinp 0.51311f
C26 vdd vout 1.62919f
C27 out_left vinn 0.08183f
C28 out_left tail 0.00652f
C29 out_left vbias_p 0.84152f
C30 out_left vout 0.6058f
C31 latch_left vinn 1.33911f
C32 latch_left tail 8.82993f
C33 vbias_p latch_left 0.00103f
C34 vdd latch_right 1.44611f
C35 latch_left vout 0.14014f
C36 vinp vss 0.4258f
C37 vinn vss 0.50566f
C38 tail vss 1.09774f
C39 vbias_p vss 0.82905f
C40 vdd vss 43.54159f
C41 vout vss 3.2381f
C42 latch_right vss 4.74799f
C43 out_left vss 3.38408f
C44 latch_left vss 5.11722f
.ends

.subckt sky130_fd_pr__pfet_01v8_A6MZLZ B D S G VSUBS
X0 S G D B sky130_fd_pr__pfet_01v8 ad=0.58 pd=4.58 as=0.58 ps=4.58 w=2 l=0.15
C0 G S 0.02934f
C1 D B 0.14266f
C2 D S 0.32105f
C3 B S 0.14266f
C4 G D 0.02934f
C5 G B 0.24043f
C6 S VSUBS 0.09023f
C7 D VSUBS 0.09023f
C8 G VSUBS 0.11914f
C9 B VSUBS 1.5811f
.ends

.subckt sky130_fd_pr__nfet_01v8_MH3LLV B D S G
X0 S G D B sky130_fd_pr__nfet_01v8 ad=0.29 pd=2.58 as=0.29 ps=2.58 w=1 l=0.15
C0 S G 0.02545f
C1 D S 0.16211f
C2 D G 0.02545f
C3 S B 0.1317f
C4 D B 0.1317f
C5 G B 0.34289f
.ends

.subckt tmux_2to1 Y vdd XM5/G B A S vss
XXM1 vdd vdd XM5/G S vss sky130_fd_pr__pfet_01v8_A6MZLZ
XXM2 vss vss XM5/G S sky130_fd_pr__nfet_01v8_MH3LLV
XXM3 vdd A Y S vss sky130_fd_pr__pfet_01v8_A6MZLZ
XXM4 vss A Y XM5/G sky130_fd_pr__nfet_01v8_MH3LLV
XXM5 vdd Y B XM5/G vss sky130_fd_pr__pfet_01v8_A6MZLZ
XXM6 vss Y B S sky130_fd_pr__nfet_01v8_MH3LLV
C0 Y B 0.03022f
C1 vdd B 0.11322f
C2 A S 0.09932f
C3 XM5/G A 0.66126f
C4 Y vdd 0.18933f
C5 A Y 0.03022f
C6 A vdd 0.05809f
C7 XM5/G S 0.4752f
C8 S B 0.0426f
C9 XM5/G B 0.09611f
C10 Y S 0.13093f
C11 XM5/G Y 0.31571f
C12 vdd S 0.27839f
C13 XM5/G vdd 0.17343f
C14 B vss 0.39578f
C15 S vss 1.22376f
C16 Y vss 0.38976f
C17 XM5/G vss 0.68597f
C18 vdd vss 4.09633f
C19 A vss 0.18036f
.ends

.subckt sky130_fd_pr__res_generic_m1_SPQYYJ R1 R2 m1_n100_n100# VSUBS
R0 R1 R2 sky130_fd_pr__res_generic_m1 w=1 l=1
C0 R2 VSUBS 0.07104f
C1 R1 VSUBS 0.07104f
C2 m1_n100_n100# VSUBS 0.10692f
.ends

.subckt inv vin vdd vout vss
XXMn vss vss vout vin sky130_fd_pr__nfet_01v8_MH3LLV
XXMp vdd vdd vout vin vss sky130_fd_pr__pfet_01v8_A6MZLZ
C0 vin vout 0.12658f
C1 vdd vout 0.11998f
C2 vdd vin 0.13776f
C3 vin vss 0.56678f
C4 vout vss 0.40687f
C5 vdd vss 1.84972f
.ends

.subckt buffer in out vdd inv_1/vin vss
Xinv_0 in vdd inv_1/vin vss inv
Xinv_1 inv_1/vin vdd out vss inv
C0 vdd inv_1/vin 0.16476f
C1 out inv_1/vin 0.0071f
C2 out vdd 0.00589f
C3 in inv_1/vin 0.01628f
C4 vdd in 0.01965f
C5 inv_1/vin vss 0.60193f
C6 out vss 0.3255f
C7 in vss 0.41789f
C8 vdd vss 3.06334f
.ends

.subckt tmux_7therm_to_3bin d0 d1 d2 d3 d4 d5 d6 q0 q1 q2 buffer_7/inv_1/vin buffer_3/inv_1/vin
+ buffer_5/out buffer_2/out buffer_4/inv_1/vin buffer_0/inv_1/vin buffer_6/out R1/R2
+ buffer_0/out buffer_5/inv_1/vin buffer_1/inv_1/vin tmux_2to1_0/XM5/G R1/R1 tmux_2to1_3/A
+ tmux_2to1_3/XM5/G buffer_6/inv_1/vin buffer_2/inv_1/vin R1/m1_n100_n100# buffer_1/out
+ buffer_8/in vdd vss buffer_7/in buffer_4/out
Xtmux_2to1_1 buffer_8/in vdd tmux_2to1_1/XM5/G buffer_5/out buffer_1/out R1/R1 vss
+ tmux_2to1
Xtmux_2to1_2 tmux_2to1_3/B vdd tmux_2to1_2/XM5/G buffer_6/out buffer_2/out R1/R1 vss
+ tmux_2to1
Xtmux_2to1_3 buffer_7/in vdd tmux_2to1_3/XM5/G tmux_2to1_3/B tmux_2to1_3/A buffer_8/in
+ vss tmux_2to1
XR1 R1/R1 R1/R2 R1/m1_n100_n100# vss sky130_fd_pr__res_generic_m1_SPQYYJ
Xbuffer_0 d0 buffer_0/out vdd buffer_0/inv_1/vin vss buffer
Xbuffer_1 d1 buffer_1/out vdd buffer_1/inv_1/vin vss buffer
Xbuffer_2 d2 buffer_2/out vdd buffer_2/inv_1/vin vss buffer
Xbuffer_3 d3 R1/R2 vdd buffer_3/inv_1/vin vss buffer
Xbuffer_4 d4 buffer_4/out vdd buffer_4/inv_1/vin vss buffer
Xbuffer_5 d5 buffer_5/out vdd buffer_5/inv_1/vin vss buffer
Xbuffer_6 d6 buffer_6/out vdd buffer_6/inv_1/vin vss buffer
Xbuffer_7 buffer_7/in q0 vdd buffer_7/inv_1/vin vss buffer
Xbuffer_8 buffer_8/in q1 vdd buffer_8/inv_1/vin vss buffer
Xbuffer_9 R1/R1 q2 vdd buffer_9/inv_1/vin vss buffer
Xtmux_2to1_0 tmux_2to1_3/A vdd tmux_2to1_0/XM5/G buffer_4/out buffer_0/out R1/R1 vss
+ tmux_2to1
C0 tmux_2to1_3/XM5/G buffer_7/in 0.01403f
C1 tmux_2to1_3/B vdd 1.44834f
C2 buffer_4/out buffer_5/out 1.96436f
C3 vdd d3 0.07265f
C4 buffer_5/out buffer_1/out 0.05669f
C5 R1/R1 buffer_7/in 0.00295f
C6 buffer_6/out vdd 3.00774f
C7 tmux_2to1_3/B tmux_2to1_3/XM5/G 0.0457f
C8 d2 tmux_2to1_3/B 0
C9 buffer_0/inv_1/vin buffer_0/out 0.00873f
C10 d2 d3 0.00435f
C11 tmux_2to1_3/B R1/R1 0.24354f
C12 tmux_2to1_3/XM5/G vdd 0.0495f
C13 d3 R1/R1 0
C14 buffer_0/inv_1/vin buffer_1/inv_1/vin 0.00435f
C15 buffer_4/out buffer_7/in 0.04488f
C16 tmux_2to1_1/XM5/G buffer_5/out 0.02579f
C17 d2 vdd 0.07265f
C18 vdd d0 0.0683f
C19 tmux_2to1_0/XM5/G buffer_7/in 0.00597f
C20 buffer_6/out R1/R1 0.20693f
C21 d4 buffer_4/out 0.00133f
C22 buffer_1/out buffer_7/in 0
C23 d1 buffer_8/in 0
C24 d5 buffer_5/out 0.00133f
C25 vdd R1/R1 2.2016f
C26 buffer_2/out tmux_2to1_2/XM5/G 0.14365f
C27 tmux_2to1_3/B buffer_4/out 0.27941f
C28 buffer_5/inv_1/vin buffer_5/out 0.00827f
C29 buffer_2/inv_1/vin buffer_1/inv_1/vin 0.00438f
C30 buffer_8/inv_1/vin buffer_5/out 0
C31 tmux_2to1_3/B buffer_1/out 0
C32 tmux_2to1_3/B buffer_9/inv_1/vin 0.00176f
C33 tmux_2to1_3/XM5/G R1/R1 0
C34 d2 R1/R1 0.00119f
C35 buffer_6/out buffer_4/out 1.41966f
C36 buffer_4/inv_1/vin buffer_5/out 0
C37 d0 R1/R1 0
C38 tmux_2to1_3/A buffer_5/out 0.00456f
C39 buffer_4/out vdd 1.78677f
C40 buffer_8/in buffer_1/inv_1/vin 0
C41 R1/m1_n100_n100# buffer_5/out 0.01185f
C42 tmux_2to1_1/XM5/G buffer_7/in 0
C43 buffer_6/out buffer_9/inv_1/vin 0.00222f
C44 vdd tmux_2to1_0/XM5/G 0.05854f
C45 vdd buffer_1/out 0.83708f
C46 vdd buffer_9/inv_1/vin 0.03021f
C47 q1 buffer_7/in 0
C48 tmux_2to1_3/XM5/G buffer_4/out 0.04713f
C49 d4 d5 0.00435f
C50 tmux_2to1_1/XM5/G tmux_2to1_3/B 0
C51 tmux_2to1_3/XM5/G buffer_1/out 0
C52 buffer_8/inv_1/vin buffer_7/in 0
C53 q0 buffer_7/in 0
C54 R1/R2 buffer_5/out 0.01212f
C55 q1 tmux_2to1_3/B 0
C56 buffer_4/out R1/R1 0.26729f
C57 tmux_2to1_0/XM5/G d0 0
C58 tmux_2to1_3/A buffer_7/in 0.38438f
C59 tmux_2to1_0/XM5/G R1/R1 0.0674f
C60 buffer_1/out R1/R1 0.22519f
C61 buffer_3/inv_1/vin buffer_5/out 0
C62 tmux_2to1_1/XM5/G vdd 0.04059f
C63 buffer_9/inv_1/vin R1/R1 0.00349f
C64 buffer_8/inv_1/vin tmux_2to1_3/B 0.00974f
C65 d5 vdd 0.07265f
C66 q1 vdd 0.01294f
C67 buffer_6/out buffer_5/inv_1/vin 0
C68 tmux_2to1_3/A tmux_2to1_3/B 0.0101f
C69 buffer_5/inv_1/vin vdd 0.32846f
C70 buffer_8/in buffer_5/out 0.33947f
C71 buffer_8/inv_1/vin vdd 0.02538f
C72 buffer_4/out tmux_2to1_0/XM5/G 0.02654f
C73 vdd q0 0.01294f
C74 buffer_4/out buffer_1/out 0.00456f
C75 buffer_2/out buffer_5/out 0.05213f
C76 buffer_6/out buffer_4/inv_1/vin 0
C77 tmux_2to1_1/XM5/G R1/R1 0.13419f
C78 vdd buffer_4/inv_1/vin 0.32846f
C79 tmux_2to1_3/A vdd 0.31099f
C80 buffer_6/out R1/m1_n100_n100# 0
C81 R1/m1_n100_n100# vdd 0.01544f
C82 tmux_2to1_3/A tmux_2to1_3/XM5/G 0.04146f
C83 tmux_2to1_1/XM5/G buffer_4/out 0.02598f
C84 tmux_2to1_3/B buffer_2/inv_1/vin 0
C85 tmux_2to1_3/A d0 0
C86 buffer_0/inv_1/vin vdd 0.32203f
C87 buffer_8/in buffer_7/in 0.24628f
C88 buffer_6/out R1/R2 0.00154f
C89 tmux_2to1_1/XM5/G tmux_2to1_0/XM5/G 0.00433f
C90 tmux_2to1_3/A R1/R1 0.0222f
C91 R1/R2 vdd 0.32828f
C92 tmux_2to1_1/XM5/G buffer_1/out 0.18587f
C93 R1/m1_n100_n100# R1/R1 0.04565f
C94 buffer_6/out buffer_3/inv_1/vin 0
C95 tmux_2to1_2/XM5/G buffer_5/out 0.09828f
C96 buffer_3/inv_1/vin vdd 0.32836f
C97 q2 tmux_2to1_3/B 0
C98 buffer_6/out buffer_6/inv_1/vin 0.00786f
C99 buffer_2/inv_1/vin vdd 0.32649f
C100 tmux_2to1_3/B buffer_8/in 0.28179f
C101 vdd buffer_6/inv_1/vin 0.32835f
C102 buffer_2/out tmux_2to1_3/B 0.04026f
C103 buffer_0/inv_1/vin R1/R1 0.01886f
C104 buffer_4/out buffer_4/inv_1/vin 0.0079f
C105 tmux_2to1_3/A buffer_4/out 0.60354f
C106 buffer_8/inv_1/vin buffer_9/inv_1/vin 0.00438f
C107 R1/m1_n100_n100# buffer_4/out 0.00131f
C108 R1/R2 R1/R1 0.03366f
C109 q2 vdd 0.01294f
C110 tmux_2to1_3/A tmux_2to1_0/XM5/G 0.08101f
C111 buffer_6/out buffer_2/out 0.01539f
C112 vdd buffer_8/in 0.52301f
C113 tmux_2to1_3/A buffer_1/out 0
C114 buffer_2/out vdd 0.64599f
C115 buffer_3/inv_1/vin R1/R1 0.00894f
C116 buffer_2/inv_1/vin R1/R1 0.02182f
C117 tmux_2to1_3/XM5/G buffer_8/in 0.34642f
C118 buffer_0/out buffer_7/in 0
C119 R1/R2 buffer_4/out 0.00232f
C120 buffer_7/inv_1/vin buffer_7/in 0.00796f
C121 buffer_2/out d2 0
C122 buffer_0/inv_1/vin tmux_2to1_0/XM5/G 0
C123 q2 R1/R1 0
C124 tmux_2to1_3/B tmux_2to1_2/XM5/G 0.03416f
C125 buffer_8/in R1/R1 0.07792f
C126 tmux_2to1_3/A tmux_2to1_1/XM5/G 0
C127 buffer_3/inv_1/vin buffer_4/out 0
C128 buffer_2/out R1/R1 0.2789f
C129 buffer_6/out tmux_2to1_2/XM5/G 0.02333f
C130 d1 vdd 0.07265f
C131 buffer_5/inv_1/vin buffer_4/inv_1/vin 0.00435f
C132 vdd tmux_2to1_2/XM5/G 0.05427f
C133 tmux_2to1_3/A q0 0
C134 buffer_4/out buffer_8/in 0.18314f
C135 vdd buffer_0/out 0.83616f
C136 buffer_2/out buffer_4/out 0.0018f
C137 buffer_7/inv_1/vin vdd 0.02382f
C138 buffer_8/in buffer_1/out 0.06403f
C139 d2 d1 0.00438f
C140 d1 d0 0.00435f
C141 buffer_6/out d6 0.00132f
C142 d6 vdd 0.07265f
C143 vdd buffer_1/inv_1/vin 0.32649f
C144 d1 R1/R1 0
C145 tmux_2to1_2/XM5/G R1/R1 0.26532f
C146 buffer_0/out d0 0.0015f
C147 buffer_0/out R1/R1 0.11396f
C148 buffer_0/inv_1/vin tmux_2to1_3/A 0
C149 buffer_5/inv_1/vin buffer_6/inv_1/vin 0.00438f
C150 tmux_2to1_1/XM5/G buffer_8/in 0.12457f
C151 buffer_5/out buffer_7/in 0.00264f
C152 R1/m1_n100_n100# R1/R2 0.0386f
C153 buffer_3/inv_1/vin buffer_4/inv_1/vin 0.00438f
C154 buffer_4/out tmux_2to1_2/XM5/G 0.07683f
C155 buffer_1/inv_1/vin R1/R1 0.02062f
C156 q1 buffer_8/in 0
C157 R1/m1_n100_n100# buffer_3/inv_1/vin 0.00103f
C158 d1 buffer_1/out 0.00148f
C159 buffer_4/out buffer_0/out 0.0414f
C160 buffer_7/inv_1/vin buffer_4/out 0.00238f
C161 tmux_2to1_3/B buffer_5/out 0.16421f
C162 buffer_8/inv_1/vin buffer_8/in 0.01384f
C163 tmux_2to1_0/XM5/G buffer_0/out 0.18135f
C164 tmux_2to1_3/A buffer_8/in 0.1382f
C165 buffer_6/out buffer_5/out 0.48773f
C166 vdd buffer_5/out 1.96257f
C167 buffer_1/inv_1/vin buffer_1/out 0.0086f
C168 tmux_2to1_1/XM5/G tmux_2to1_2/XM5/G 0.00433f
C169 buffer_3/inv_1/vin buffer_2/inv_1/vin 0.00435f
C170 tmux_2to1_3/XM5/G buffer_5/out 0.01262f
C171 tmux_2to1_3/B buffer_7/in 0.20877f
C172 buffer_5/out R1/R1 0.55887f
C173 d4 d3 0.00438f
C174 vdd buffer_7/in 0.23539f
C175 buffer_2/out buffer_2/inv_1/vin 0.00356f
C176 d6 d5 0.00438f
C177 buffer_8/inv_1/vin buffer_7/inv_1/vin 0.00435f
C178 d4 vdd 0.07265f
C179 tmux_2to1_3/A buffer_0/out 0.05826f
C180 buffer_6/out tmux_2to1_3/B 0.18281f
C181 tmux_2to1_3/A buffer_7/inv_1/vin 0
C182 tmux_2to1_3/A vss 0.7137f
C183 tmux_2to1_0/XM5/G vss 0.55203f
C184 buffer_9/inv_1/vin vss 0.83718f
C185 q2 vss 0.40182f
C186 buffer_8/inv_1/vin vss 0.83586f
C187 q1 vss 0.40182f
C188 buffer_7/inv_1/vin vss 0.83588f
C189 q0 vss 0.40182f
C190 buffer_6/inv_1/vin vss 0.54713f
C191 buffer_6/out vss 1.08087f
C192 d6 vss 0.42023f
C193 buffer_5/inv_1/vin vss 0.54811f
C194 buffer_5/out vss 1.1426f
C195 d5 vss 0.41693f
C196 vdd vss 81.61826f
C197 buffer_4/inv_1/vin vss 0.54811f
C198 buffer_4/out vss 1.13891f
C199 d4 vss 0.41693f
C200 buffer_3/inv_1/vin vss 0.54811f
C201 R1/R2 vss 0.24595f
C202 d3 vss 0.41694f
C203 buffer_2/inv_1/vin vss 0.55981f
C204 buffer_2/out vss 0.38944f
C205 d2 vss 0.41693f
C206 buffer_1/inv_1/vin vss 0.55981f
C207 buffer_1/out vss 0.403f
C208 d1 vss 0.41693f
C209 buffer_0/inv_1/vin vss 0.55981f
C210 buffer_0/out vss 0.40723f
C211 d0 vss 0.42457f
C212 R1/m1_n100_n100# vss 0.11104f
C213 buffer_8/in vss 1.94693f
C214 buffer_7/in vss 1.30882f
C215 tmux_2to1_3/XM5/G vss 0.55181f
C216 R1/R1 vss 4.97016f
C217 tmux_2to1_3/B vss 1.00035f
C218 tmux_2to1_2/XM5/G vss 0.54992f
C219 tmux_2to1_1/XM5/G vss 0.55178f
.ends

.subckt flashADC_3bit_extracted vin vref dout0 dout1 dout2 d0 d1 d2 d3 d4 d5 d6 vdd
+ vss
Xvbias_generation_0 vbias_generation_0/bias_n vdd vbias_generation_0/XR_bias_2/R2
+ vbias_generation_0/XR_bias_4/R1 vbias_generation_0/XR_bias_3/R2 comp_p_6/vbias_p
+ vss vbias_generation
Xres_ladder_vref_0 comp_p_2/vinn comp_p_5/vinn comp_p_6/vinn vref comp_p_3/vinn comp_p_0/vinn
+ comp_p_1/vinn comp_p_4/vinn vss res_ladder_vref
Xcomp_p_1 vin comp_p_1/vinn comp_p_6/vbias_p vdd comp_p_1/tail d0 comp_p_1/latch_right
+ comp_p_1/out_left comp_p_1/latch_left vss comp_p
Xcomp_p_0 vin comp_p_0/vinn comp_p_6/vbias_p vdd comp_p_0/tail d1 comp_p_0/latch_right
+ comp_p_0/out_left comp_p_0/latch_left vss comp_p
Xcomp_p_2 vin comp_p_2/vinn comp_p_6/vbias_p vdd comp_p_2/tail d2 comp_p_2/latch_right
+ comp_p_2/out_left comp_p_2/latch_left vss comp_p
Xcomp_p_3 vin comp_p_3/vinn comp_p_6/vbias_p vdd comp_p_3/tail d3 comp_p_3/latch_right
+ comp_p_3/out_left comp_p_3/latch_left vss comp_p
Xcomp_p_4 vin comp_p_4/vinn comp_p_6/vbias_p vdd comp_p_4/tail d4 comp_p_4/latch_right
+ comp_p_4/out_left comp_p_4/latch_left vss comp_p
Xcomp_p_5 vin comp_p_5/vinn comp_p_6/vbias_p vdd comp_p_5/tail d5 comp_p_5/latch_right
+ comp_p_5/out_left comp_p_5/latch_left vss comp_p
Xcomp_p_6 vin comp_p_6/vinn comp_p_6/vbias_p vdd comp_p_6/tail d6 comp_p_6/latch_right
+ comp_p_6/out_left comp_p_6/latch_left vss comp_p
Xtmux_7therm_to_3bin_0 d0 d1 d2 d3 d4 d5 d6 dout0 dout1 dout2 tmux_7therm_to_3bin_0/buffer_7/inv_1/vin
+ tmux_7therm_to_3bin_0/buffer_3/inv_1/vin tmux_7therm_to_3bin_0/buffer_5/out tmux_7therm_to_3bin_0/buffer_2/out
+ tmux_7therm_to_3bin_0/buffer_4/inv_1/vin tmux_7therm_to_3bin_0/buffer_0/inv_1/vin
+ tmux_7therm_to_3bin_0/buffer_6/out tmux_7therm_to_3bin_0/R1/R2 tmux_7therm_to_3bin_0/buffer_0/out
+ tmux_7therm_to_3bin_0/buffer_5/inv_1/vin tmux_7therm_to_3bin_0/buffer_1/inv_1/vin
+ tmux_7therm_to_3bin_0/tmux_2to1_0/XM5/G tmux_7therm_to_3bin_0/R1/R1 tmux_7therm_to_3bin_0/tmux_2to1_3/A
+ tmux_7therm_to_3bin_0/tmux_2to1_3/XM5/G tmux_7therm_to_3bin_0/buffer_6/inv_1/vin
+ tmux_7therm_to_3bin_0/buffer_2/inv_1/vin tmux_7therm_to_3bin_0/R1/m1_n100_n100#
+ tmux_7therm_to_3bin_0/buffer_1/out tmux_7therm_to_3bin_0/buffer_8/in vdd vss tmux_7therm_to_3bin_0/buffer_7/in
+ tmux_7therm_to_3bin_0/buffer_4/out tmux_7therm_to_3bin
X0 vdd comp_p_4/out_left.t2 d4 vdd sky130_fd_pr__pfet_01v8_lvt ad=2.32 pd=16.58 as=2.32 ps=16.58 w=0 l=0
X1 comp_p_4/out_left comp_p_4/latch_left.t3 vss vss sky130_fd_pr__nfet_01v8_lvt ad=1.45 pd=10.58 as=1.45 ps=10.58 w=0 l=0
X2 vdd comp_p_6/out_left.t2 d6 vdd sky130_fd_pr__pfet_01v8_lvt ad=2.32 pd=16.58 as=2.32 ps=16.58 w=0 l=0
X3 tmux_7therm_to_3bin_0/buffer_1/inv_1/vin d1.t1 vdd vdd sky130_fd_pr__pfet_01v8 ad=0.58 pd=4.58 as=0.58 ps=4.58 w=0 l=0
X4 tmux_7therm_to_3bin_0/buffer_6/inv_1/vin d6.t0 vss vss sky130_fd_pr__nfet_01v8 ad=0.29 pd=2.58 as=0.29 ps=2.58 w=0 l=0
X5 comp_p_1/out_left comp_p_1/latch_left.t3 vss vss sky130_fd_pr__nfet_01v8_lvt ad=1.45 pd=10.58 as=1.45 ps=10.58 w=0 l=0
X6 comp_p_2/tail vin.t10 comp_p_2/latch_right vdd sky130_fd_pr__pfet_01v8_lvt ad=2.89855 pd=20.57 as=2.89855 ps=20.57 w=0 l=0
X7 comp_p_4/tail vin.t16 comp_p_4/latch_right vdd sky130_fd_pr__pfet_01v8_lvt ad=2.89855 pd=20.57 as=2.89855 ps=20.57 w=0 l=0
X8 tmux_7therm_to_3bin_0/buffer_4/inv_1/vin d4.t0 vss vss sky130_fd_pr__nfet_01v8 ad=0.29 pd=2.58 as=0.29 ps=2.58 w=0 l=0
X9 comp_p_2/tail vin.t9 comp_p_2/latch_right vdd sky130_fd_pr__pfet_01v8_lvt ad=2.89855 pd=20.57 as=2.89855 ps=20.57 w=0 l=0
X10 vdd comp_p_6/vbias_p.t3 comp_p_0/tail vdd sky130_fd_pr__pfet_01v8_lvt ad=2.9 pd=20.58 as=2.9 ps=20.58 w=0 l=0
X11 comp_p_4/latch_left.t1 comp_p_4/latch_left.t0 vss vss sky130_fd_pr__nfet_01v8_lvt ad=1.16 pd=8.58 as=1.16 ps=8.58 w=0 l=0
X12 comp_p_1/tail vin.t2 comp_p_1/latch_right vdd sky130_fd_pr__pfet_01v8_lvt ad=2.89855 pd=20.57 as=2.89855 ps=20.57 w=0 l=0
X13 comp_p_3/latch_left comp_p_3/latch_right.t2 vss vss sky130_fd_pr__nfet_01v8_lvt ad=1.45 pd=10.58 as=1.45 ps=10.58 w=0 l=0
X14 comp_p_4/tail vin.t19 comp_p_4/latch_right vdd sky130_fd_pr__pfet_01v8_lvt ad=2.89855 pd=20.57 as=2.89855 ps=20.57 w=0 l=0
X15 comp_p_5/latch_right comp_p_5/latch_left.t2 vss vss sky130_fd_pr__nfet_01v8_lvt ad=1.45 pd=10.58 as=1.45 ps=10.58 w=0 l=0
X16 tmux_7therm_to_3bin_0/buffer_6/inv_1/vin d6.t1 vdd vdd sky130_fd_pr__pfet_01v8 ad=0.58 pd=4.58 as=0.58 ps=4.58 w=0 l=0
X17 comp_p_2/latch_right comp_p_2/latch_left.t2 vss vss sky130_fd_pr__nfet_01v8_lvt ad=1.45 pd=10.58 as=1.45 ps=10.58 w=0 l=0
X18 comp_p_2/tail vin.t11 comp_p_2/latch_right vdd sky130_fd_pr__pfet_01v8_lvt ad=2.89855 pd=20.57 as=2.89855 ps=20.57 w=0 l=0
X19 vdd comp_p_6/vbias_p.t5 comp_p_3/tail vdd sky130_fd_pr__pfet_01v8_lvt ad=2.9 pd=20.58 as=2.9 ps=20.58 w=0 l=0
X20 comp_p_1/tail vin.t3 comp_p_1/latch_right vdd sky130_fd_pr__pfet_01v8_lvt ad=2.89855 pd=20.57 as=2.89855 ps=20.57 w=0 l=0
X21 tmux_7therm_to_3bin_0/buffer_1/inv_1/vin d1.t0 vss vss sky130_fd_pr__nfet_01v8 ad=0.29 pd=2.58 as=0.29 ps=2.58 w=0 l=0
X22 vdd comp_p_0/out_left.t0 comp_p_0/out_left.t1 vdd sky130_fd_pr__pfet_01v8_lvt ad=2.32 pd=16.58 as=2.32 ps=16.58 w=0 l=0
X23 comp_p_2/latch_left.t1 comp_p_2/latch_left.t0 vss vss sky130_fd_pr__nfet_01v8_lvt ad=1.16 pd=8.58 as=1.16 ps=8.58 w=0 l=0
X24 comp_p_3/out_left comp_p_3/latch_left.t3 vss vss sky130_fd_pr__nfet_01v8_lvt ad=1.45 pd=10.58 as=1.45 ps=10.58 w=0 l=0
X25 vdd comp_p_6/vbias_p.t6 comp_p_4/tail vdd sky130_fd_pr__pfet_01v8_lvt ad=2.9 pd=20.58 as=2.9 ps=20.58 w=0 l=0
X26 comp_p_4/tail vin.t18 comp_p_4/latch_right vdd sky130_fd_pr__pfet_01v8_lvt ad=2.89855 pd=20.57 as=2.89855 ps=20.57 w=0 l=0
X27 tmux_7therm_to_3bin_0/buffer_3/inv_1/vin d3.t1 vdd vdd sky130_fd_pr__pfet_01v8 ad=0.58 pd=4.58 as=0.58 ps=4.58 w=0 l=0
X28 comp_p_3/latch_left.t1 comp_p_3/latch_left.t0 vss vss sky130_fd_pr__nfet_01v8_lvt ad=1.16 pd=8.58 as=1.16 ps=8.58 w=0 l=0
X29 vdd comp_p_6/vbias_p.t8 comp_p_6/tail vdd sky130_fd_pr__pfet_01v8_lvt ad=2.9 pd=20.58 as=2.9 ps=20.58 w=0 l=0
X30 comp_p_6/tail vin.t24 comp_p_6/latch_right vdd sky130_fd_pr__pfet_01v8_lvt ad=2.89855 pd=20.57 as=2.89855 ps=20.57 w=0 l=0
X31 comp_p_0/tail vin.t6 comp_p_0/latch_right vdd sky130_fd_pr__pfet_01v8_lvt ad=2.89855 pd=20.57 as=2.89855 ps=20.57 w=0 l=0
X32 vdd comp_p_6/out_left.t0 comp_p_6/out_left.t1 vdd sky130_fd_pr__pfet_01v8_lvt ad=2.32 pd=16.58 as=2.32 ps=16.58 w=0 l=0
X33 tmux_7therm_to_3bin_0/buffer_2/inv_1/vin d2.t0 vss vss sky130_fd_pr__nfet_01v8 ad=0.29 pd=2.58 as=0.29 ps=2.58 w=0 l=0
X34 comp_p_0/tail vin.t4 comp_p_0/latch_right vdd sky130_fd_pr__pfet_01v8_lvt ad=2.89855 pd=20.57 as=2.89855 ps=20.57 w=0 l=0
X35 comp_p_3/tail vin.t12 comp_p_3/latch_right vdd sky130_fd_pr__pfet_01v8_lvt ad=2.89855 pd=20.57 as=2.89855 ps=20.57 w=0 l=0
X36 vdd comp_p_4/out_left.t0 comp_p_4/out_left.t1 vdd sky130_fd_pr__pfet_01v8_lvt ad=2.32 pd=16.58 as=2.32 ps=16.58 w=0 l=0
X37 tmux_7therm_to_3bin_0/buffer_2/inv_1/vin d2.t1 vdd vdd sky130_fd_pr__pfet_01v8 ad=0.58 pd=4.58 as=0.58 ps=4.58 w=0 l=0
X38 tmux_7therm_to_3bin_0/buffer_3/inv_1/vin d3.t0 vss vss sky130_fd_pr__nfet_01v8 ad=0.29 pd=2.58 as=0.29 ps=2.58 w=0 l=0
X39 tmux_7therm_to_3bin_0/buffer_5/inv_1/vin d5.t0 vss vss sky130_fd_pr__nfet_01v8 ad=0.29 pd=2.58 as=0.29 ps=2.58 w=0 l=0
X40 comp_p_0/tail vin.t7 comp_p_0/latch_right vdd sky130_fd_pr__pfet_01v8_lvt ad=2.89855 pd=20.57 as=2.89855 ps=20.57 w=0 l=0
X41 comp_p_5/tail vin.t21 comp_p_5/latch_right vdd sky130_fd_pr__pfet_01v8_lvt ad=2.89855 pd=20.57 as=2.89855 ps=20.57 w=0 l=0
X42 comp_p_6/latch_right comp_p_6/latch_left.t2 vss vss sky130_fd_pr__nfet_01v8_lvt ad=1.45 pd=10.58 as=1.45 ps=10.58 w=0 l=0
X43 comp_p_1/latch_right comp_p_1/latch_left.t2 vss vss sky130_fd_pr__nfet_01v8_lvt ad=1.45 pd=10.58 as=1.45 ps=10.58 w=0 l=0
X44 tmux_7therm_to_3bin_0/buffer_5/inv_1/vin d5.t1 vdd vdd sky130_fd_pr__pfet_01v8 ad=0.58 pd=4.58 as=0.58 ps=4.58 w=0 l=0
X45 comp_p_0/tail vin.t5 comp_p_0/latch_right vdd sky130_fd_pr__pfet_01v8_lvt ad=2.89855 pd=20.57 as=2.89855 ps=20.57 w=0 l=0
X46 comp_p_1/latch_left.t1 comp_p_1/latch_left.t0 vss vss sky130_fd_pr__nfet_01v8_lvt ad=1.16 pd=8.58 as=1.16 ps=8.58 w=0 l=0
X47 vdd comp_p_6/vbias_p.t2 comp_p_1/tail vdd sky130_fd_pr__pfet_01v8_lvt ad=2.9 pd=20.58 as=2.9 ps=20.58 w=0 l=0
X48 vdd comp_p_0/out_left.t2 d1 vdd sky130_fd_pr__pfet_01v8_lvt ad=2.32 pd=16.58 as=2.32 ps=16.58 w=0 l=0
X49 tmux_7therm_to_3bin_0/buffer_0/inv_1/vin d0.t1 vdd vdd sky130_fd_pr__pfet_01v8 ad=0.58 pd=4.58 as=0.58 ps=4.58 w=0 l=0
X50 vdd comp_p_3/out_left.t2 d3 vdd sky130_fd_pr__pfet_01v8_lvt ad=2.32 pd=16.58 as=2.32 ps=16.58 w=0 l=0
X51 comp_p_4/latch_right comp_p_4/latch_left.t2 vss vss sky130_fd_pr__nfet_01v8_lvt ad=1.45 pd=10.58 as=1.45 ps=10.58 w=0 l=0
X52 comp_p_5/out_left comp_p_5/latch_left.t3 vss vss sky130_fd_pr__nfet_01v8_lvt ad=1.45 pd=10.58 as=1.45 ps=10.58 w=0 l=0
X53 vdd comp_p_6/vbias_p.t4 comp_p_2/tail vdd sky130_fd_pr__pfet_01v8_lvt ad=2.9 pd=20.58 as=2.9 ps=20.58 w=0 l=0
X54 comp_p_3/latch_right comp_p_3/latch_left.t2 vss vss sky130_fd_pr__nfet_01v8_lvt ad=1.45 pd=10.58 as=1.45 ps=10.58 w=0 l=0
X55 comp_p_5/latch_left.t1 comp_p_5/latch_left.t0 vss vss sky130_fd_pr__nfet_01v8_lvt ad=1.16 pd=8.58 as=1.16 ps=8.58 w=0 l=0
X56 comp_p_3/latch_right.t1 comp_p_3/latch_right.t0 vss vss sky130_fd_pr__nfet_01v8_lvt ad=1.16 pd=8.58 as=1.16 ps=8.58 w=0 l=0
X57 comp_p_6/tail vin.t25 comp_p_6/latch_right vdd sky130_fd_pr__pfet_01v8_lvt ad=2.89855 pd=20.57 as=2.89855 ps=20.57 w=0 l=0
X58 comp_p_6/tail vin.t26 comp_p_6/latch_right vdd sky130_fd_pr__pfet_01v8_lvt ad=2.89855 pd=20.57 as=2.89855 ps=20.57 w=0 l=0
X59 comp_p_2/tail vin.t8 comp_p_2/latch_right vdd sky130_fd_pr__pfet_01v8_lvt ad=2.89855 pd=20.57 as=2.89855 ps=20.57 w=0 l=0
X60 comp_p_4/tail vin.t17 comp_p_4/latch_right vdd sky130_fd_pr__pfet_01v8_lvt ad=2.89855 pd=20.57 as=2.89855 ps=20.57 w=0 l=0
X61 comp_p_5/tail vin.t20 comp_p_5/latch_right vdd sky130_fd_pr__pfet_01v8_lvt ad=2.89855 pd=20.57 as=2.89855 ps=20.57 w=0 l=0
X62 comp_p_6/out_left comp_p_6/latch_left.t3 vss vss sky130_fd_pr__nfet_01v8_lvt ad=1.45 pd=10.58 as=1.45 ps=10.58 w=0 l=0
X63 comp_p_3/tail vin.t13 comp_p_3/latch_right vdd sky130_fd_pr__pfet_01v8_lvt ad=2.89855 pd=20.57 as=2.89855 ps=20.57 w=0 l=0
X64 tmux_7therm_to_3bin_0/buffer_0/inv_1/vin d0.t0 vss vss sky130_fd_pr__nfet_01v8 ad=0.29 pd=2.58 as=0.29 ps=2.58 w=0 l=0
X65 d3 comp_p_3/latch_right.t3 vss vss sky130_fd_pr__nfet_01v8_lvt ad=1.45 pd=10.58 as=1.45 ps=10.58 w=0 l=0
X66 comp_p_3/tail vin.t14 comp_p_3/latch_right vdd sky130_fd_pr__pfet_01v8_lvt ad=2.89855 pd=20.57 as=2.89855 ps=20.57 w=0 l=0
X67 vdd comp_p_6/vbias_p.t7 comp_p_5/tail vdd sky130_fd_pr__pfet_01v8_lvt ad=2.9 pd=20.58 as=2.9 ps=20.58 w=0 l=0
X68 comp_p_6/tail vin.t27 comp_p_6/latch_right vdd sky130_fd_pr__pfet_01v8_lvt ad=2.89855 pd=20.57 as=2.89855 ps=20.57 w=0 l=0
X69 comp_p_2/out_left comp_p_2/latch_left.t3 vss vss sky130_fd_pr__nfet_01v8_lvt ad=1.45 pd=10.58 as=1.45 ps=10.58 w=0 l=0